28
Coordinates from ORCA-job rf_mecn_1H2O_opt_B3L_sw_004 E -2029.681291704766
  C           6.85979908332225     28.30838238720354      2.61303199927680
  C           6.31075569736851     26.87459311661581      2.80708712210757
  C           6.91148191747214     25.61867335496159      2.09587035946961
  C           6.43396899233991     24.11659635652490      2.19621346219256
  C           7.03929072217287     22.86512746809486      1.47261312737736
  C           6.52975226526126     21.40710178765187      1.72123505046003
  C           7.01764265248948     20.25155154348969      0.79669879197801
  C           6.68126768559482     18.81795934495409      1.34780103530090
  F           6.77220139797099     28.68222860923418      1.32684531687592
  F           8.14632581099992     28.38173022493868      2.98899620263487
  F           6.18710693712178     29.24722724298153      3.33877004042899
  F           6.38902960415075     26.64270480246947      4.16112428075774
  F           4.98627770536565     26.94733332329588      2.44417685091660
  F           6.83338803407400     25.92110778952345      0.73786226272082
  F           8.24432267884878     25.60066226135474      2.48697460878164
  F           6.51670340138804     23.81599516212615      3.55333450604956
  F           5.10004683587321     24.14938586590464      1.81784406759801
  F           6.90219006917863     23.09992091808794      0.12375026224352
  F           8.37997591547299     22.86040417963183      1.77933564731558
  F           6.87243258794805     21.07375929056536      3.00213992406497
  F           5.16643697926752     21.42822283677445      1.65077748712738
  F           6.45178111347164     20.43442948974399     -0.43806609954286
  F           8.36779245812434     20.39865540070980      0.62222479373559
  O           7.61152006878823     18.22661727487973      1.90819647137032
  O           5.49525292867155     18.45789021673301      1.17143835649678
  O           3.24488812037486     19.24586170490336     -0.19016484393916
  H           3.11958189225209     18.47823093992072     -0.76034573566063
  H           4.08753816863547     19.06496469172369      0.28485306186145
