!TPSSh def2-TZVP freq d3 TightSCF SlowConv defgrid2
 
%pal
nprocs 20
end
 
%scf
MaxIter 1500
end
 
%maxcore 8000
 
!CPCM
%cpcm smd true
SMDsolvent "ACETONITRILE"
end
 
* xyz 0 2
6        4.674951000      0.153200000     -0.467596000
8        5.019642000     -0.694587000     -1.427402000
8        5.158884000      1.227076000     -0.234502000
6        3.496194000     -0.408073000      0.374369000
6        2.117996000      0.058620000     -0.193270000
6        0.875456000     -0.667217000      0.426536000
6       -0.467080000      0.108951000      0.209507000
6       -1.765034000     -0.750396000      0.389401000
6       -3.007455000      0.085345000      0.478274000
6       -4.037801000      0.258747000     -0.597609000
9        3.518325000     -1.762522000      0.402170000
9        3.627045000      0.048959000      1.637572000
9        2.009946000      1.389559000      0.019024000
9        2.115132000     -0.163800000     -1.527472000
9        0.773440000     -1.890952000     -0.135857000
9        1.067316000     -0.821556000      1.753942000
9       -0.519886000      1.127142000      1.096981000
9       -0.490388000      0.625223000     -1.040071000
9       -1.629248000     -1.481094000      1.527671000
9       -1.872453000     -1.595388000     -0.664277000
9       -3.324071000      0.547474000      1.674586000
9       -4.887842000     -0.790449000     -0.675401000
9       -4.775307000      1.351652000     -0.354663000
9       -3.457571000      0.389240000     -1.801497000
1        5.753132000     -0.305601000     -1.947424000
*
