24
Coordinates from ORCA-job rf_mecn_opt_r2s_C7_D_B E -1853.115433309703
  C           4.64392310772464      0.30722180527060     -0.66558798270996
  O           5.25335391674198     -0.55594532535648     -1.30419850256344
  O           4.76752326459006      1.53871296765738     -0.60923166181517
  C           3.48600114775393     -0.22966561342234      0.25525769104136
  C           2.09421347216006      0.25724779521662     -0.21056380806908
  C           0.89700302973822     -0.56724285853623      0.34347371092225
  C          -0.47004522944774      0.17063613556806      0.22631648509779
  C          -1.71327874033425     -0.76239032194661      0.31035755344492
  C          -2.98678579159930     -0.01036626060487      0.51838400622340
  C          -4.04016359794385      0.20506761583534     -0.51991327152790
  F           3.44573135543272     -1.58795078060058      0.29348433933399
  F           3.66657683649234      0.18870991847673      1.53822710692373
  F           1.91402358321240      1.53995909986377      0.15630135925385
  F           2.04807670267819      0.18706152574757     -1.55829253640987
  F           0.81640747277899     -1.73007426675260     -0.32621080218996
  F           1.11090578826388     -0.83455100293120      1.64344610280371
  F          -0.56469491338453      1.06489771328177      1.22548462361232
  F          -0.53708798403156      0.82629524004996     -0.94465246938334
  F          -1.52172793206656     -1.61883744484974      1.33787639473351
  F          -1.80487526223417     -1.46266872767465     -0.83672647600386
  F          -3.29657971865695      0.30196931838872      1.75582005362393
  F          -4.74650869000366     -0.90819736364352     -0.77429273084724
  F          -4.89562003222678      1.13879838740588     -0.11072941251998
  F          -3.49617278563802      0.59564064355641     -1.67531577297498
