!TPSSh def2-TZVP freq d3 TightSCF SlowConv defgrid2
 
%pal
nprocs 20
end
 
%scf
MaxIter 1500
end
 
%maxcore 8000
 
!CPCM
%cpcm smd true
SMDsolvent "ACETONITRILE"
end
 
* xyz -1 1
6        4.819689000      0.122433000     -0.410253000
8        5.422011000     -0.749026000     -1.055706000
8        5.044207000      1.334059000     -0.234009000
6        3.519020000     -0.372095000      0.343233000
6        2.221395000      0.292536000     -0.194186000
6        0.891813000     -0.445273000      0.176639000
6       -0.389097000      0.445759000      0.020841000
6       -1.720318000     -0.378061000     -0.049208000
6       -2.995743000      0.475133000      0.264966000
6       -4.330226000     -0.161015000     -0.241619000
9        3.345455000     -1.727181000      0.247294000
9        3.610616000     -0.091076000      1.682746000
9        2.132586000      1.563247000      0.267403000
9        2.296524000      0.338124000     -1.551017000
9        0.755135000     -1.533950000     -0.615203000
9        0.955085000     -0.855187000      1.463421000
9       -0.460282000      1.285473000      1.077691000
9       -0.290787000      1.178631000     -1.109156000
9       -1.665295000     -1.391443000      0.841499000
9       -1.841689000     -0.900860000     -1.288759000
9       -2.883307000      1.691891000     -0.310368000
9       -3.094012000      0.633572000      1.599809000
9       -4.415553000     -1.443160000      0.128982000
9       -5.358594000      0.507380000      0.289730000
9       -4.417226000     -0.086351000     -1.571226000
*
