25
Coordinates from ORCA-job rf_mecn_opt_r2s_C5_P_B E -1853.569370410734
  C           4.23663671488509      0.50527567905917      0.32842687244544
  O           5.18223020252435     -0.13769464033853     -0.32767521002188
  O           4.24358527063757      1.64692072085496      0.68296435808330
  C           3.01802633829784     -0.40777046095202      0.59496992357310
  C           1.91976959792713     -0.16791763655522     -0.47455098303444
  C           0.77973689004996     -1.23473351720570     -0.48385264202348
  C          -0.44262227971203     -0.75104225423306     -1.19152846939917
  C          -1.86220758969488     -0.76747572761601     -0.70970905846843
  C          -2.24962399581073      0.47503289713297      0.14022906545184
  C          -3.73608211353016      0.57232428921874      0.56732895776141
  F           3.36319841550925     -1.70710602043378      0.57844269826759
  F           2.52106475564713     -0.10858363411566      1.80478541375991
  F           1.37857991349411      1.04212696868679     -0.25479041160142
  F           2.50657077887315     -0.15756269701245     -1.68505275547989
  F           1.26800731458725     -2.34362726356244     -1.08946430474952
  F           0.47206190633196     -1.55593388766180      0.78566776123791
  F          -0.23426153850201     -0.14832456463157     -2.34385831578192
  F          -2.08790325275557     -1.86910011896581      0.02978728963326
  F          -2.66699523259076     -0.79069765590710     -1.79170622516309
  F          -1.95687189939128      1.57433161250561     -0.57414053072099
  F          -1.50986505824072      0.47164818658728      1.26059558836982
  F          -4.08717020031082     -0.48459600374849      1.28953405355035
  F          -3.89089672598851      1.66561140459427      1.30855753725523
  F          -4.53204428263159      0.66060158432456     -0.48972433328102
  H           5.91997864139421      0.47680799297532     -0.50075293266390
