!r2scanh def2-TZVP freq d3 TightSCF SlowConv defgrid2
 
%pal
nprocs 20
end
 
%scf
MaxIter 1500
end
 
%maxcore 8000
 
!CPCM
%cpcm smd true
SMDsolvent "ACETONITRILE"
end
 
* xyz 0 2
6        4.236637000      0.505276000      0.328427000
8        5.182230000     -0.137695000     -0.327675000
8        4.243585000      1.646921000      0.682964000
6        3.018026000     -0.407770000      0.594970000
6        1.919770000     -0.167918000     -0.474551000
6        0.779737000     -1.234734000     -0.483853000
6       -0.442622000     -0.751042000     -1.191528000
6       -1.862208000     -0.767476000     -0.709709000
6       -2.249624000      0.475033000      0.140229000
6       -3.736082000      0.572324000      0.567329000
9        3.363198000     -1.707106000      0.578443000
9        2.521065000     -0.108584000      1.804785000
9        1.378580000      1.042127000     -0.254790000
9        2.506571000     -0.157563000     -1.685053000
9        1.268007000     -2.343627000     -1.089464000
9        0.472062000     -1.555934000      0.785668000
9       -0.234262000     -0.148325000     -2.343858000
9       -2.087903000     -1.869100000      0.029787000
9       -2.666995000     -0.790698000     -1.791706000
9       -1.956872000      1.574332000     -0.574141000
9       -1.509865000      0.471648000      1.260596000
9       -4.087170000     -0.484596000      1.289534000
9       -3.890897000      1.665611000      1.308558000
9       -4.532044000      0.660602000     -0.489724000
1        5.919979000      0.476808000     -0.500753000
*
