!r2scanh def2-TZVP freq d3 TightSCF SlowConv defgrid2
 
%pal
nprocs 20
end
 
%scf
MaxIter 1500
end
 
%maxcore 8000
 
!CPCM
%cpcm smd true
SMDsolvent "ACETONITRILE"
end
 
* xyz -1 1
6        4.777456000      0.107992000     -0.411338000
8        5.358632000     -0.764232000     -1.063863000
8        5.015713000      1.311465000     -0.238711000
6        3.486833000     -0.369723000      0.352071000
6        2.203596000      0.299417000     -0.192376000
6        0.883313000     -0.438856000      0.176023000
6       -0.386015000      0.451788000      0.020064000
6       -1.704180000     -0.376729000     -0.056452000
6       -2.969297000      0.471581000      0.264562000
6       -4.293126000     -0.165508000     -0.239690000
9        3.305397000     -1.714537000      0.268441000
9        3.581359000     -0.073390000      1.677295000
9        2.115652000      1.560328000      0.269607000
9        2.283897000      0.342701000     -1.539223000
9        0.745160000     -1.514882000     -0.617948000
9        0.946267000     -0.847860000      1.453761000
9       -0.462789000      1.282556000      1.072027000
9       -0.283242000      1.179059000     -1.102641000
9       -1.645208000     -1.388110000      0.823403000
9       -1.823082000     -0.885618000     -1.292360000
9       -2.858370000      1.682195000     -0.303686000
9       -3.064865000      0.619677000      1.591956000
9       -4.362491000     -1.441520000      0.124610000
9       -5.314885000      0.490207000      0.297745000
9       -4.384319000     -0.084445000     -1.559733000
*
