!TPSSh def2-TZVP freq d3 TightSCF SlowConv defgrid2
 
%pal
nprocs 20
end
 
%scf
MaxIter 1500
end
 
%maxcore 8000
 
!CPCM
%cpcm smd true
SMDsolvent "ACETONITRILE"
end
 
* xyz -1 2
6        4.830367000      0.084452000     -0.361284000
8        5.424081000     -0.776104000     -1.029031000
8        5.078041000      1.283708000     -0.138023000
6        3.507588000     -0.408846000      0.354522000
6        2.231359000      0.293319000     -0.185240000
6        0.880454000     -0.421509000      0.152845000
6       -0.378246000      0.499734000     -0.004816000
6       -1.726945000     -0.290864000     -0.100264000
6       -2.998910000      0.558680000      0.209974000
6       -4.274131000     -0.185152000     -0.163653000
9        3.312341000     -1.757101000      0.214466000
9        3.580349000     -0.169540000      1.703311000
9        2.164492000      1.556380000      0.300192000
9        2.327050000      0.363528000     -1.539903000
9        0.731574000     -1.492681000     -0.660664000
9        0.916888000     -0.857014000      1.432395000
9       -0.436558000      1.334069000      1.056408000
9       -0.249385000      1.241009000     -1.127646000
9       -1.710030000     -1.322989000      0.772933000
9       -1.842430000     -0.789799000     -1.351706000
9       -2.909866000      1.744643000     -0.460724000
9       -3.042580000      0.823423000      1.532186000
9       -5.341278000      0.163775000      0.537566000
9       -4.539707000     -0.237189000     -1.459431000
*
