!B3LYP def2-TZVP freq d3 TightSCF SlowConv defgrid2
 
%pal
nprocs 20
end
 
%scf
MaxIter 1500
end
 
%maxcore 8000
 
!CPCM
%cpcm smd true
SMDsolvent "ACETONITRILE"
end
 
* xyz -1 1
6        4.820807000      0.136137000     -0.399891000
8        5.413770000     -0.713769000     -1.075975000
8        5.054547000      1.336432000     -0.186559000
6        3.518249000     -0.378268000      0.340528000
6        2.221745000      0.290870000     -0.196864000
6        0.891585000     -0.452930000      0.168828000
6       -0.389352000      0.442213000      0.018234000
6       -1.722900000     -0.380570000     -0.043334000
6       -2.996695000      0.481932000      0.261195000
6       -4.332505000     -0.159238000     -0.237375000
9        3.356501000     -1.728856000      0.220323000
9        3.601948000     -0.116948000      1.681325000
9        2.134319000      1.555026000      0.274372000
9        2.299128000      0.345112000     -1.550235000
9        0.757088000     -1.533614000     -0.629259000
9        0.955363000     -0.870557000      1.450098000
9       -0.452914000      1.281103000      1.072409000
9       -0.296181000      1.170856000     -1.111986000
9       -1.671584000     -1.379818000      0.859670000
9       -1.842502000     -0.916923000     -1.274097000
9       -2.883918000      1.689106000     -0.327697000
9       -3.092747000      0.655070000      1.591839000
9       -4.423530000     -1.429355000      0.163646000
9       -5.358445000      0.525926000      0.271350000
9       -4.410372000     -0.115379000     -1.567001000
*
