26
Coordinates from ORCA-job rf_mecn_opt_r2s_P_B E -1953.467294797287
  C           4.74538872686428     -0.03684022986733     -0.24269258194512
  O           5.12495567321925     -0.87039901234747     -1.19129887775746
  O           5.26826906944014      0.98881678682682      0.07866682386560
  C           3.45363598997808     -0.52899329177049      0.44863205557158
  C           2.20528040061779      0.13976194160285     -0.19022970601540
  C           0.85899788046154     -0.53153270945139      0.21640712659879
  C          -0.37130857233891      0.39485258361550     -0.02009914001442
  C          -1.72113856492673     -0.38573758599931     -0.03568643020739
  C          -2.95152809073842      0.53848801731379      0.19329144218667
  C          -4.30546336813000     -0.10198711765009     -0.21794759953794
  F           3.32325047932008     -1.86397796144691      0.35226008369663
  F           3.51095467680284     -0.19207677592150      1.74484672886692
  F           2.18846343599952      1.43106685817841      0.17514582646604
  F           2.33096290332478      0.07195361377739     -1.52644790713507
  F           0.70323847451377     -1.65016119712250     -0.50765100304234
  F           0.90635481589458     -0.85739871857417      1.51571671726787
  F          -0.41228545110027      1.31231787641622      0.95688688865702
  F          -0.22434765851559      1.01674511531784     -1.19917579996945
  F          -1.70315617842812     -1.31391413816166      0.93263028672643
  F          -1.85090304745565     -0.99757898880927     -1.22162425735560
  F          -2.80004691804512      1.66688579329704     -0.51704579938946
  F          -3.02665364869749      0.84591770873076      1.49396645830510
  F          -4.42804307702928     -1.31126068851288      0.31802796604519
  F          -5.29044862164140      0.66817166897265      0.22837564275733
  F          -4.40600665010215     -0.19741559076760     -1.53579401510027
  H           5.92610649171247     -0.51692310464668     -1.62133738254124
