!TPSSh def2-TZVP freq d3 TightSCF SlowConv defgrid2
 
%pal
nprocs 20
end
 
%scf
MaxIter 1500
end
 
%maxcore 8000
 
!CPCM
%cpcm smd true
SMDsolvent "ACETONITRILE"
end
 
* xyz -1 2
6        3.844448000     -0.797963000     -1.079630000
8        3.409352000     -1.604697000     -1.916931000
8        4.887223000     -0.120273000     -1.040415000
6        2.906484000     -0.566402000      0.173469000
6        2.183657000      0.813513000      0.154834000
6        0.984860000      0.906165000      1.050642000
6       -0.439053000      1.215929000      0.690151000
6       -1.269851000     -0.014549000      0.185739000
6       -2.817708000      0.208223000      0.154339000
6       -3.597725000     -0.797464000     -0.750786000
9        1.921054000     -1.518271000      0.260672000
9        3.615620000     -0.651422000      1.343819000
9        3.083164000      1.783412000      0.508963000
9        1.794817000      1.069005000     -1.126050000
9        1.167274000      0.487749000      2.298674000
9       -1.066144000      1.690288000      1.803266000
9       -0.479791000      2.173922000     -0.267196000
9       -1.014843000     -1.057640000      1.008671000
9       -0.842780000     -0.337234000     -1.056052000
9       -3.094457000      1.452426000     -0.293759000
9       -3.298252000      0.085991000      1.409131000
9       -3.238080000     -2.056670000     -0.479490000
9       -4.907549000     -0.666278000     -0.514413000
9       -3.374343000     -0.550641000     -2.043266000
*
