26
Coordinates from ORCA-job rf_mecn_opt_TP_P_B E -1954.345337568961
  C           4.78797803452224     -0.03164182996772     -0.22790801130988
  O           5.16442820282878     -0.82626670501726     -1.22044862433789
  O           5.32744916592154      0.97262752176820      0.14885787528250
  C           3.48380460335855     -0.54747750221728      0.43876967951423
  C           2.22237352064775      0.12553843409694     -0.19002873026889
  C           0.86311950922850     -0.53987873140728      0.21781438642736
  C          -0.37587326186717      0.39042878628098     -0.02070106449047
  C          -1.73971154497418     -0.38346477085365     -0.02841525073245
  C          -2.98001227707324      0.54742619580847      0.18429361783018
  C          -4.34622673671413     -0.09628174206061     -0.21786012731604
  F           3.36749772333504     -1.89132709457034      0.31443195465396
  F           3.53290985788257     -0.24027897843558      1.75249576907496
  F           2.21307059441174      1.42492646789188      0.18236074081677
  F           2.34111384778779      0.06675637577726     -1.53598150187367
  F           0.70525570759055     -1.66931092601014     -0.50567518329715
  F           0.90655358405380     -0.86767584181502      1.52589551636796
  F          -0.40908221225836      1.32072724620304      0.95697369380746
  F          -0.23127746908510      1.01339876277952     -1.20947947251480
  F          -1.72922052747799     -1.30521410467038      0.95831708674603
  F          -1.86827794791117     -1.01920142310299     -1.21177792578105
  F          -2.82897915536020      1.67331582903040     -0.54644850739542
  F          -3.05355122207584      0.88174751782199      1.48786770836635
  F          -4.48699213597254     -1.30112215775602      0.34440907780793
  F          -5.33414691463416      0.69546231121470      0.21082915515712
  F          -4.44620769104159     -0.22027097516604     -1.54248561571709
  H           5.96853391587682     -0.45416181262304     -1.63828269981801
