25
Coordinates from ORCA-job rf_mecn_opt_r2s_C4_P_B E -1853.569779840387
  C           4.15710982995764     -0.30901449472487      0.67120016517017
  O           4.95763190609998     -1.11976970279261      0.00464360574775
  O           4.46807238150855      0.51994401707615      1.47389565047124
  C           2.68707290955208     -0.54071054440775      0.26648388319737
  C           2.27042768280437      0.26635774551634     -0.99276606988126
  C           0.85017877253603      0.04793766522781     -1.41288335679888
  C          -0.37687978077296      0.75326437310013     -0.93832440255939
  C          -1.46294390689967     -0.22999719357707     -0.39673487126773
  C          -2.54121047028361      0.46626745752192      0.48228767063466
  C          -3.84341115324108     -0.36385871734111      0.64944164723746
  F           2.45339702057289     -1.84263245266574      0.01024869417076
  F           1.89577155537722     -0.15471352340436      1.28101687159021
  F           2.49018738409104      1.57004357714097     -0.73541785301010
  F           3.07483622756802     -0.11866055918448     -2.00590927619183
  F           0.63833348267826     -0.99005692528439     -2.19630830352049
  F          -0.05956721890002      1.61852412058971      0.04112304151378
  F          -0.93753487126908      1.44934765482883     -1.95562116617610
  F          -0.85678188689892     -1.16833530330169      0.34924777706431
  F          -2.05898738184793     -0.83148387041873     -1.43791425635794
  F          -2.87864386838620      1.64721443482855     -0.05790810620612
  F          -2.02909636822862      0.67583981374930      1.70225207354691
  F          -3.55485235749954     -1.61601456605707      0.98779527870277
  F          -4.57867668331755      0.18273529391535      1.61016266755272
  F          -4.54847004033732     -0.36826599511307     -0.47325730749978
  H           5.88021540613641     -0.94067245222212      0.26597608986949
