!r2scanh def2-TZVP opt d3 TightSCF SlowConv defgrid2
 
%pal
nprocs 20
end
 
%scf
MaxIter 1500
end
 
%maxcore 8000
 
!CPCM
%cpcm smd true
SMDsolvent "ACETONITRILE"
end
 
* xyz 0 2
6        4.157110000     -0.309014000      0.671200000
8        4.957632000     -1.119770000      0.004644000
8        4.468072000      0.519944000      1.473896000
6        2.687073000     -0.540711000      0.266484000
6        2.270428000      0.266358000     -0.992766000
6        0.850179000      0.047938000     -1.412883000
6       -0.376880000      0.753264000     -0.938324000
6       -1.462944000     -0.229997000     -0.396735000
6       -2.541210000      0.466267000      0.482288000
6       -3.843411000     -0.363859000      0.649442000
9        2.453397000     -1.842632000      0.010249000
9        1.895772000     -0.154714000      1.281017000
9        2.490187000      1.570044000     -0.735418000
9        3.074836000     -0.118661000     -2.005909000
9        0.638333000     -0.990057000     -2.196308000
9       -0.059567000      1.618524000      0.041123000
9       -0.937535000      1.449348000     -1.955621000
9       -0.856782000     -1.168335000      0.349248000
9       -2.058987000     -0.831484000     -1.437914000
9       -2.878644000      1.647214000     -0.057908000
9       -2.029096000      0.675840000      1.702252000
9       -3.554852000     -1.616015000      0.987795000
9       -4.578677000      0.182735000      1.610163000
9       -4.548470000     -0.368266000     -0.473257000
1        5.880215000     -0.940672000      0.265976000
*
