25
Coordinates from ORCA-job rf_mecn_opt_r2s_C3_P_B E -1853.567375212999
  C           4.46422223778808      0.33019983817731     -0.17804419609086
  O           5.24375039385504     -0.50743771028206     -0.83607248490603
  O           4.58610332213174      1.51499661012709     -0.08794512677088
  C           3.29505988234407     -0.43036106073118      0.49107501197372
  C           2.18444612011238     -0.68241881808542     -0.47064337508152
  C           0.81059688417025     -1.14107163374641     -0.11308489081550
  C          -0.25226040620087     -0.00281847944272     -0.16936120617066
  C          -1.72582405449032     -0.50306870039967     -0.12509421926986
  C          -2.73121716624046      0.61058842326927      0.28715192809677
  C          -4.20592790668270      0.28851909980558     -0.07958935950893
  F           3.75407929997742     -1.60007672404090      1.01701726293085
  F           2.84344085654168      0.30518335343688      1.53106633314981
  F           2.43020341732009     -0.50843219834155     -1.75382231297692
  F           0.41552246832751     -2.10828618676645     -0.97216377655174
  F           0.83487826867066     -1.64181507724270      1.13510604402128
  F          -0.03151655928008      0.82025723615394      0.86802401186153
  F          -0.07208886282104      0.68043310944918     -1.31067347151045
  F          -1.82830474110054     -1.50924648459231      0.75577115389782
  F          -2.05914199156840     -0.95939100828278     -1.34252702290073
  F          -2.40196675820793      1.76079928245314     -0.32074125779975
  F          -2.66609304337276      0.78240588723077      1.61326992982164
  F          -4.52509472300363     -0.93947731074020      0.31471367422814
  F          -4.99916437252840      1.15712499464303      0.53589371906994
  F          -4.39999528056191      0.38941292600749     -1.38712938810999
  H           5.96512508582013     -0.00410631505933     -1.25761003358771
