!B3LYP def2-TZVP freq d3 TightSCF SlowConv defgrid2
 
%pal
nprocs 20
end
 
%scf
MaxIter 1500
end
 
%maxcore 8000
 
!CPCM
%cpcm smd true
SMDsolvent "ACETONITRILE"
end
 
* xyz -2 2
6        7.304944000     27.826916000      2.876307000
6        6.821774000     26.367216000      3.068721000
6        7.234358000     25.214473000      2.100144000
6        6.798287000     23.702254000      2.193391000
6        7.200063000     22.527268000      1.235361000
6        6.756855000     21.042093000      1.445379000
6        7.072849000     19.954956000      0.372822000
6        6.728697000     18.497338000      0.827699000
9        6.897401000     28.312422000      1.694271000
9        8.643221000     27.898409000      2.926982000
9        6.827953000     28.666891000      3.833407000
9        7.239302000     26.011347000      4.326413000
9        5.451597000     26.436624000      3.060162000
9        6.811598000     25.636736000      0.847268000
9        8.619868000     25.200659000      2.133030000
9        7.222351000     23.294790000      3.454724000
9        5.411138000     23.737410000      2.166159000
9        6.750591000     22.891641000     -0.015160000
9        8.578294000     22.512745000      1.220156000
9        7.316942000     20.622868000      2.620126000
9        5.397611000     21.040894000      1.607127000
9        6.379781000     20.276465000     -0.761539000
9        8.402936000     20.053110000      0.055796000
8        7.645908000     17.876501000      1.399817000
8        5.562850000     18.122955000      0.595759000
8        3.371463000     19.039758000     -0.800893000
1        2.715974000     18.432956000     -0.436916000
1        4.207002000     18.802902000     -0.341339000
1        9.195022000     18.495951000      2.002263000
8       10.052275000     18.783899000      2.389268000
1       10.085310000     19.730391000      2.207517000
*
