25
Coordinates from ORCA-job rf_mecn_opt_B3L_C7_P_B E -1853.734477492014
  C           4.67320214517848      0.15334943918786     -0.46799386287659
  O           5.01810422356135     -0.69053129509607     -1.42729204116725
  O           5.15409343926099      1.22436350452677     -0.23487981773008
  C           3.49496500132037     -0.40828934794187      0.37719826103130
  C           2.11828612282233      0.06428830481757     -0.19050795769805
  C           0.87523467603237     -0.66034202411086      0.43231619065748
  C          -0.46950074010739      0.11120586934251      0.20095976085747
  C          -1.76356444828465     -0.75700038900689      0.38275560699850
  C          -3.00990572429157      0.06803572426342      0.47776811848880
  C          -4.04378367053504      0.24839954744876     -0.59289670755536
  F           3.51551336877203     -1.75988176069692      0.40058562134544
  F           3.62834344387578      0.04538153999146      1.63863250683379
  F           2.01506325691908      1.39281993486903      0.02228672077956
  F           2.11335742292194     -0.15950776623661     -1.52211184263026
  F           0.78174762618298     -1.88748019873906     -0.11800186039030
  F           1.06027303208235     -0.79942350172955      1.75948900129162
  F          -0.52848875514953      1.13346115267365      1.07989376403196
  F          -0.48878215226799      0.61724437452256     -1.04996865167399
  F          -1.61944005975713     -1.48525836194707      1.52060360825682
  F          -1.86574834544371     -1.60187172912568     -0.66756354321113
  F          -3.29340583331835      0.57294865120278      1.66069484008092
  F          -4.90778142776804     -0.78760477563706     -0.65322495451473
  F          -4.76159249952869      1.35293210694443     -0.35344793829591
  F          -3.47286248380113      0.35896244055860     -1.80148594774288
  H           5.74999375232316     -0.30664778708176     -1.95081412816710
