!TPSSh def2-TZVP freq d3 TightSCF SlowConv defgrid2
 
%pal
nprocs 20
end
 
%scf
MaxIter 1500
end
 
%maxcore 8000
 
!CPCM
%cpcm smd true
SMDsolvent "ACETONITRILE"
end
 
* xyz -1 2
6        3.573618000     -0.426927000     -1.182197000
8        4.217493000     -1.411615000     -1.570685000
8        2.930967000      0.443318000     -1.809884000
6        3.574718000     -0.137276000      0.358235000
6        2.256198000      0.327001000      0.878397000
6        0.981878000     -0.439141000      0.773192000
6       -0.274134000      0.459955000      0.498922000
6       -1.520575000     -0.321769000     -0.032172000
6       -2.865314000      0.463441000      0.123629000
6       -4.025771000     -0.070336000     -0.776551000
9        4.022327000     -1.217253000      1.106625000
9        4.490610000      0.867476000      0.605318000
9        2.267211000      1.206427000      1.891211000
9        1.084465000     -1.360245000     -0.216611000
9        0.728046000     -1.120087000      1.940852000
9       -0.611838000      1.087151000      1.651546000
9        0.050590000      1.397156000     -0.415868000
9       -1.639691000     -1.488422000      0.637567000
9       -1.328702000     -0.595986000     -1.341969000
9       -2.674201000      1.763431000     -0.190170000
9       -3.269738000      0.381754000      1.406903000
9       -4.129904000     -1.399983000     -0.679383000
9       -5.175931000      0.478679000     -0.372674000
9       -3.825069000      0.257104000     -2.054920000
*
