25
Coordinates from ORCA-job rf_mecn_opt_B3L_C2_P_B E -1853.743261527859
  C           4.75017292322862     -0.14219868509326     -0.28216551610284
  O           5.66064514404373     -1.09888061442975     -0.06813279754705
  O           4.99494475429946      1.02964997206703     -0.47368200851491
  C           3.39257023315915     -0.66611642176291     -0.26855071118959
  C           2.17323344599196      0.17880010613624     -0.51706398350445
  C           0.83932011991072     -0.53805140358763     -0.12028446516786
  C          -0.40885845721682      0.41475002310949     -0.08330604718600
  C          -1.77336565412146     -0.36206703467724     -0.11543216488692
  C          -2.98494957181888      0.50263067082228      0.37536349740815
  C          -4.38172308623420     -0.06438476460635     -0.03863684464858
  F           3.20560757333073     -1.96892690067501     -0.17832577610853
  F           2.24936655419115      1.33554268210636      0.18412350734397
  F           2.10354295315502      0.50926722075010     -1.83885334960158
  F           0.60598521148964     -1.53287634894906     -1.00084744631488
  F           0.99037460615801     -1.06844804296050      1.11079167789540
  F          -0.35328264016137      1.14840481014202      1.04576146041219
  F          -0.37459691815084      1.24747087411277     -1.14056454720481
  F          -1.68845522378357     -1.44993477812596      0.67563418465348
  F          -2.00555759680142     -0.76688083873207     -1.37926506617621
  F          -2.88565875806685      1.75017728605047     -0.12521794565683
  F          -2.95256581310967      0.56795010978756      1.71907408458971
  F          -4.47436451903219     -1.35803276408920      0.27823045231092
  F          -5.33000988614735      0.60784554410879      0.61668549582575
  F          -4.58650421387596      0.07941693413740     -1.34718025234274
  H           6.54759619056238     -0.69161258264158     -0.09028069128577
