24
Coordinates from ORCA-job rf_mecn_opt_r2s_C2_D_B_01 E -1853.117460133307
  C           4.40680677368084     -0.67249369076478     -0.38423436577659
  O           3.97852935492458     -1.08580121683976     -1.48143437059689
  O           5.44408883980148     -0.96689960828524      0.23682055843322
  C           3.52298870364095      0.33242661667084      0.29040628984306
  C           2.21627491116751      0.88637363703973     -0.17456734921922
  C           0.99720808773871     -0.03458829526007      0.13528171851799
  C          -0.38822650264545      0.67215515163380      0.04913911496119
  C          -1.57488223505593     -0.32681946399958     -0.09651285737394
  C          -2.94998255530943      0.30384504390139      0.27114273996732
  C          -4.16729302358788     -0.48687422066020     -0.28057291711270
  F           3.77326999279531      0.66126349572044      1.56145159095854
  F           1.97035876631533      2.06678279517138      0.46787448932799
  F           2.22414796673063      1.13956817017804     -1.49714229623548
  F           1.00434276049102     -1.07235733494112     -0.71530929299227
  F           1.14007801278504     -0.50734939324213      1.38897003638418
  F          -0.57800723086710      1.39613415435341      1.16502555306786
  F          -0.40429343212913      1.49650039691769     -1.00974339075298
  F          -1.37034973787400     -1.37867537160742      0.71179769266034
  F          -1.62197377510523     -0.75976710814066     -1.36586064599704
  F          -3.02350374093560      1.55241312116982     -0.21565494534653
  F          -3.06369523995766      0.34852125892950      1.60486682225946
  F          -4.05440165609409     -1.77801111122795      0.01225919851215
  F          -5.27360341574558     -0.01412834877076      0.28179490934070
  F          -4.26806222476432     -0.34661287794637     -1.59499068283035
