25
Coordinates from ORCA-job rf_mecn_opt_TP_C3_P_B E -1854.407545998650
  C           4.41931892598257      0.37743768819233     -0.19548060907081
  O           5.37641694052884     -0.36846898161423     -0.73200378782409
  O           4.34167158110272      1.57564843908889     -0.20076380042167
  C           3.32115339225751     -0.50117780375726      0.46228622520221
  C           2.19547211338313     -0.76151519905868     -0.48722712897288
  C           0.80769687889245     -1.20564465145988     -0.13885910079001
  C          -0.24489309485649     -0.04396426583921     -0.16546073123310
  C          -1.73972234770641     -0.50751274551234     -0.12708662514228
  C          -2.72823382975081      0.62498650663597      0.31233950939864
  C          -4.22135653640531      0.36191346500507     -0.06388794167888
  F           3.85676587333194     -1.67976226504025      0.91562725193374
  F           2.85587558934442      0.15405850855791      1.56119022162733
  F           2.46189818038299     -0.63302088134876     -1.78071319678581
  F           0.39994093598553     -2.15303887938392     -1.02742843141160
  F           0.81989280677790     -1.74536187134747      1.10332253537424
  F          -0.00120870552327      0.75883156456911      0.89432656526053
  F          -0.05079911874808      0.66769659976031     -1.29785451123332
  F          -1.86681711894542     -1.53628914353707      0.73817205493768
  F          -2.08566650068889     -0.93922270757996     -1.35940447838778
  F          -2.36369770730754      1.79186754848842     -0.26196738394323
  F          -2.66132603158299      0.76170729315853      1.65201225166552
  F          -4.60187549499868     -0.85709409799975      0.33262538743595
  F          -4.98581824429168      1.27052066716596      0.55003040236977
  F          -4.40939894133707      0.46972873373629     -1.38075150832901
  H           6.03354282517262      0.21958953211998     -1.15845622298110
