!r2scanh def2-TZVP freq d3 TightSCF SlowConv defgrid2
 
%pal
nprocs 20
end
 
%scf
MaxIter 1500
end
 
%maxcore 8000
 
!CPCM
%cpcm smd true
SMDsolvent "ACETONITRILE"
end
 
* xyz -1 1
6        6.831820000     27.877865000      2.872044000
6        6.061833000     26.598632000      2.443760000
6        6.994178000     25.415713000      2.049245000
6        6.269570000     24.037018000      2.078859000
6        7.025431000     22.937417000      1.271829000
6        6.594179000     21.491759000      1.653433000
6        6.968235000     20.410999000      0.612131000
6        6.914381000     18.966161000      1.226300000
9        7.783920000     28.162216000      1.989659000
9        7.380757000     27.719436000      4.068308000
9        5.980021000     28.894403000      2.926785000
9        5.274978000     26.234001000      3.467826000
9        5.293434000     26.914487000      1.393939000
9        7.459080000     25.643213000      0.811326000
9        8.031018000     25.377506000      2.900074000
9        6.153777000     23.649479000      3.357947000
9        5.042073000     24.187533000      1.556346000
9        6.785058000     23.141419000     -0.033308000
9        8.343610000     23.073152000      1.495460000
9        7.188462000     21.180507000      2.822795000
9        5.260441000     21.487117000      1.839767000
9        6.104555000     20.520440000     -0.431939000
9        8.201760000     20.712117000      0.136672000
8        8.002437000     18.429102000      1.421859000
8        5.753942000     18.568465000      1.447732000
8        3.310426000     19.410049000      0.522352000
1        3.420232000     20.305716000      0.192051000
1        4.203945000     19.162681000      0.838257000
*
