27
Coordinates from ORCA-job rf_mecn_1H2O_opt_TP_con_002 E -1930.429993429127
  C           7.94517228049093     27.27898741801444      3.00381424319283
  C           6.64748584815586     26.73673861393979      2.32395647197069
  C           6.70656296783211     25.22610535112997      1.92646391072508
  C           5.31945709876595     24.55885580414777      1.63407007088954
  C           5.41592879050586     23.22188840939345      0.95943682578361
  C           5.54177501056061     21.86199078133837      1.57619683215275
  C           6.71918777440567     21.00400095866368      1.02649955198618
  C           7.04905470425815     19.75239477919935      1.92743799398200
  F           9.02541011306628     26.96774093481661      2.27960291891440
  F           8.08795377707493     26.77874892080976      4.23296096256955
  F           7.86066228913326     28.61049444303357      3.09538224134098
  F           5.62393817636327     26.94675384340835      3.18025159703740
  F           6.43462184088065     27.46876903383718      1.21050609557636
  F           7.46317605251593     25.11936278697080      0.80936127236954
  F           7.30579412336996     24.52891413672916      2.91742397960305
  F           4.64726419154845     24.44357330956831      2.80409422587919
  F           4.62848160254991     25.40418509023483      0.81931679930371
  F           5.49161557436679     23.26667075864000     -0.36559684467921
  F           5.71801940372761     22.00027443430179      2.92023131035792
  F           4.37590371493363     21.16852710418485      1.38939610092562
  F           6.40579226295705     20.61890614692232     -0.24884305350408
  F           7.79515469693172     21.84462789820438      0.92021698649099
  O           8.07213415731628     19.84610095893431      2.61490798657209
  O           6.21166774451904     18.82642803039866      1.83098241388367
  O           4.21664793475568     18.06359270730012      0.08942110336466
  H           4.66604000487702     17.34446532742988     -0.37358275216558
  H           4.90622664313718     18.42930847644732      0.69157448147699
