24
Coordinates from ORCA-job rf_mecn_opt_r2s_C6_D_B E -1853.116928728198
  C           4.50408913484222     -0.11291260233972     -0.89116124719068
  O           4.84799683798816     -1.05439099956390     -1.61240958475180
  O           4.88291634768290      1.06501923938426     -0.82899206601410
  C           3.36857440774915     -0.44224675008738      0.14792280338591
  C           2.05045716758206      0.29977252756447     -0.17354246610156
  C           0.78825277185797     -0.29710058924537      0.51416042947289
  C          -0.43406182396352      0.66684091346688      0.54777914425579
  C          -1.70720179098482     -0.04637737703599      0.85908279156078
  C          -3.08124797694409      0.42227813171288      0.49616082523603
  C          -3.67841472018297     -0.25863390990206     -0.76088410759384
  F           3.08192249324708     -1.77053787624937      0.19379749868157
  F           3.75281299524899     -0.08549317273586      1.40416577210908
  F           2.15713191392029      1.59102071729332      0.18766097193738
  F           1.84971951420245      0.24802797979230     -1.50825062368220
  F           0.41770867849320     -1.40719443155395     -0.15017267913886
  F           1.08684863257635     -0.63075934679789      1.78224747122939
  F          -0.18802306733826      1.63409827402658      1.46839154850358
  F          -0.54978154368055      1.27264617925392     -0.65285039900244
  F          -1.64734392950531     -1.06114195403334      1.69606651634211
  F          -3.07026811260474      1.75013407943428      0.26375261084488
  F          -3.92375771758241      0.16267929923637      1.51645627743286
  F          -3.70512320764969     -1.57719457201126     -0.59044326696603
  F          -4.91711226767059      0.17222579245448     -0.96866822478254
  F          -2.94230653728388      0.02418744793637     -1.82986359576820
