!TPSSh def2-TZVP opt d3 TightSCF SlowConv defgrid2
 
%pal
nprocs 20
end
 
%scf
MaxIter 1500
end
 
%maxcore 8000
 
!CPCM
%cpcm smd true
SMDsolvent "ACETONITRILE"
end
 
* xyz -1 2
6        6.856165000     27.192116000      1.751510000
6        6.229604000     25.803627000      2.099502000
6        7.271743000     24.654678000      2.293887000
6        6.708858000     23.399624000      3.054274000
6        7.543584000     22.172258000      2.874312000
6        7.148988000     20.826380000      2.333543000
6        7.198436000     20.691602000      0.785195000
6        6.800643000     19.268516000      0.251173000
9        7.736102000     27.080281000      0.750104000
9        7.471879000     27.718498000      2.812155000
9        5.880275000     28.023033000      1.372215000
9        5.503977000     25.961249000      3.227360000
9        5.396519000     25.467532000      1.092081000
9        7.696628000     24.261986000      1.072313000
9        8.334703000     25.134721000      2.978209000
9        6.650497000     23.731829000      4.380264000
9        5.445190000     23.169034000      2.628542000
9        8.842556000     22.344217000      3.098494000
9        8.000140000     19.906116000      2.868245000
9        5.887858000     20.520168000      2.744529000
9        6.378105000     21.660536000      0.281346000
9        8.469520000     21.022610000      0.402133000
8        7.722296000     18.431419000      0.261170000
8        5.613461000     19.139975000     -0.102152000
8        3.313787000     20.639311000      0.271454000
1        2.754960000     19.970339000      0.688133000
1        4.175617000     20.183692000      0.135037000
1        9.432565000     18.523462000      0.794773000
8       10.361882000     18.384825000      1.084927000
1       10.322875000     18.434501000      2.047961000
*
