31
Coordinates from ORCA-job rf_mecn_2H2O_opt_TP_sw_004 E -2106.888629600957
  C           7.30488537866148     27.84902713477897      2.86377771310898
  C           6.84316510768590     26.38517138504604      3.06919134030720
  C           7.23548098606988     25.22317934340661      2.10138915851260
  C           6.80782438265223     23.70661705945784      2.19954470709538
  C           7.19901370181172     22.52625934495638      1.24262545137776
  C           6.75767119091877     21.04164397060987      1.44900310067323
  C           7.05889182073617     19.95430042256093      0.37292443035503
  C           6.72158190624757     18.49655278677191      0.81923936937066
  F           6.86277597985168     28.33237014459844      1.69086144758702
  F           8.64548529139684     27.93675680388944      2.88041570618439
  F           6.84464811841733     28.69018843582710      3.83273428616885
  F           7.29407544611309     26.04041854469301      4.32112820141100
  F           5.46942086240815     26.44508494466823      3.09472701211468
  F           6.79067815654988     25.64158480664648      0.85334314629920
  F           8.62283270058154     25.21235470818329      2.10768807132944
  F           7.24698749512493     23.30423878069452      3.45801236466530
  F           5.41993991554245     23.73614977885906      2.19183706309326
  F           6.74097331646979     22.89128819344367     -0.00748442086671
  F           8.57849874911019     22.50918286295970      1.21626423558423
  F           7.32947000281771     20.61793088139901      2.61970912248112
  F           5.39732282943645     21.04222565041319      1.62621769258426
  F           6.35476749691919     20.28588492636606     -0.75542330552767
  F           8.38922420023892     20.05619040809977      0.04162741846331
  O           7.64147337247386     17.87632275395880      1.39665479314680
  O           5.55624506017135     18.11133981604923      0.58026812720382
  O           3.38553340950755     19.00725844328308     -0.83827628435667
  H           2.74430702461895     18.36334825192776     -0.51023489113142
  H           4.21960821182036     18.77812010475793     -0.36318696123926
  H           9.15783715054481     18.48655527360948      2.03986194664857
  O          10.02281412119019     18.75560245392330      2.43428035489036
  H          10.06078261391085     19.70769258416014      2.27549760246523
