!TPSSh def2-TZVP opt d3 TightSCF SlowConv defgrid2
 
%pal
nprocs 20
end
 
%scf
MaxIter 1500
end
 
%maxcore 8000
 
!CPCM
%cpcm smd true
SMDsolvent "ACETONITRILE"
end
 
* xyz -2 2
6        7.369539000     27.836887000      2.875128000
6        6.819253000     26.400301000      3.045578000
6        7.252508000     25.202707000      2.139346000
6        6.767447000     23.698968000      2.201011000
6        7.200514000     22.514484000      1.272699000
6        6.737514000     21.035786000      1.471519000
6        7.014916000     19.967369000      0.372037000
6        6.730507000     18.499223000      0.822816000
9        7.054685000     28.330751000      1.665850000
9        8.706365000     27.856437000      3.007823000
9        6.873486000     28.714717000      3.794736000
9        7.124661000     26.053773000      4.343072000
9        5.454460000     26.523591000      2.932174000
9        6.938251000     25.618494000      0.847962000
9        8.632090000     25.140529000      2.276703000
9        7.090691000     23.283282000      3.489349000
9        5.387177000     23.771388000      2.082759000
9        6.815749000     22.871504000     -0.002759000
9        8.579481000     22.484030000      1.318326000
9        7.314704000     20.590745000      2.629644000
9        5.380414000     21.050262000      1.666380000
9        6.254325000     20.290818000     -0.720906000
9        8.326434000     20.103811000     -0.018342000
8        7.683677000     17.901724000      1.369258000
8        5.566190000     18.089731000      0.624048000
8        3.365171000     18.904727000     -0.816130000
1        2.732271000     18.255630000     -0.483062000
1        4.199904000     18.696448000     -0.334087000
1        9.196938000     18.592267000      1.950978000
8       10.066233000     18.888142000      2.314280000
1       10.068661000     19.842315000      2.166028000
*
