24
Coordinates from ORCA-job rf_mecn_opt_r2s_C3_D_B E -1853.114513581626
  C           3.55745766183470     -0.17934953403983     -1.19586617469193
  O           4.15325491793544     -1.10515168383895     -1.75215539741703
  O           2.99851044618538      0.83497618708849     -1.64351468023831
  C           3.51759850882127     -0.23306317069169      0.37608099572585
  C           2.24385615766918      0.25426694241663      0.97356212182388
  C           0.95749582437504     -0.47611617309667      0.88243389905144
  C          -0.25666227696723      0.42645947555806      0.51333442683702
  C          -1.50352079671459     -0.37116321713688      0.02568836217333
  C          -2.81826216183533      0.45910913166859      0.10084431280114
  C          -3.96770692264724     -0.10763891083274     -0.77636732880089
  F           3.76316993960131     -1.49210206570956      0.84947183907322
  F           4.52920152122880      0.56432540482573      0.84388129141750
  F           2.17772566971469      1.51830953686858      1.37061029508122
  F           1.06670803696571     -1.45498655845053     -0.04714833888660
  F           0.64872226667216     -1.08741148338670      2.06426528687264
  F          -0.59803449380441      1.14818713040833      1.59668606295200
  F           0.10223004943089      1.26513551734526     -0.46790606064805
  F          -1.66431871567505     -1.47189811065285      0.77470503576262
  F          -1.29937801191321     -0.74477336678823     -1.24793179328825
  F          -2.58507531837639      1.71808501273264     -0.30136276941029
  F          -3.24555186080597      0.47918686603849      1.37026261069630
  F          -4.12231028408302     -1.40913810706004     -0.55759266114992
  F          -5.09523507349680      0.51780356102586     -0.45861050306379
  F          -3.72262068411534      0.09079901570800     -2.06405883267310
