!TPSSh def2-TZVP opt d3 TightSCF SlowConv defgrid2
 
%pal
nprocs 20
end
 
%scf
MaxIter 1500
end
 
%maxcore 8000
 
!CPCM
%cpcm smd true
SMDsolvent "ACETONITRILE"
end
 
* xyz -1 2
6        4.870906397      0.061888661     -0.237292510
8        5.271940174     -0.267476354     -1.399541711
8        5.203187478      1.337876105      0.278273556
1        5.668158999      1.786076840     -0.446718784
6        3.577190606     -0.417061850      0.325730837
6        2.245024540      0.218842756     -0.204004451
6        0.891320286     -0.467997151      0.173792354
6       -0.382269188      0.419918005     -0.023365189
6       -1.728626502     -0.380951428     -0.034067234
6       -2.989669377      0.508649937      0.220799218
6       -4.341700350     -0.148256685     -0.200457220
9        3.454956342     -1.770907039      0.081229207
9        3.545488518     -0.229037896      1.697273539
9        2.190934323      1.506680122      0.238734203
9        2.305906375      0.246046282     -1.564120563
9        0.746279290     -1.583774915     -0.584187158
9        0.928008200     -0.837544543      1.477151553
9       -0.436766777      1.327546928      0.978944699
9       -0.285373169      1.079994905     -1.200191876
9       -1.690728565     -1.332385248      0.925305417
9       -1.863434049     -0.985412705     -1.235071462
9       -2.875331257      1.665488073     -0.468927793
9       -3.065592445      0.790736220      1.537304067
9       -4.452300700     -1.378234719      0.311637220
9       -5.347318642      0.600905856      0.263788886
9       -4.445219507     -0.217868155     -1.529143803
*
