!r2scanh def2-TZVP opt d3 TightSCF SlowConv defgrid2
 
%pal
nprocs 20
end
 
%scf
MaxIter 1500
end
 
%maxcore 8000
 
!CPCM
%cpcm smd true
SMDsolvent "ACETONITRILE"
end
 
* xyz 0 2
6        4.718854000     -0.147405000     -0.307729000
8        5.630143000     -1.091091000     -0.078983000
8        4.951017000      1.014875000     -0.547549000
6        3.364950000     -0.669324000     -0.243942000
6        2.154015000      0.178475000     -0.494573000
6        0.830153000     -0.536286000     -0.101369000
6       -0.406138000      0.415079000     -0.068472000
6       -1.758281000     -0.360818000     -0.118274000
6       -2.961098000      0.494638000      0.377349000
6       -4.343544000     -0.059632000     -0.064329000
9        3.173140000     -1.963038000     -0.108938000
9        2.227095000      1.326425000      0.210565000
9        2.087055000      0.511840000     -1.806752000
9        0.597538000     -1.524789000     -0.980162000
9        0.977806000     -1.061834000      1.124939000
9       -0.363188000      1.134015000      1.063289000
9       -0.361445000      1.251285000     -1.114387000
9       -1.672899000     -1.453176000      0.655877000
9       -1.986932000     -0.744088000     -1.382939000
9       -2.851943000      1.745292000     -0.097054000
9       -2.943230000      0.531065000      1.715596000
9       -4.426480000     -1.359687000      0.197246000
9       -5.294018000      0.575974000      0.610002000
9       -4.539689000      0.136638000     -1.360282000
1        6.510585000     -0.680942000     -0.141251000
*
