25
Coordinates from ORCA-job rf_mecn_opt_TP_C4_P_B E -1854.409882360565
  C           4.25303765788084     -0.32991067011387      0.63345411240577
  O           5.02705709625439     -1.13104603643904     -0.08835488231722
  O           4.60358491105557      0.47755444413879      1.45030486438467
  C           2.76057604782253     -0.54416005933259      0.28034523709297
  C           2.28489978868542      0.29115001165086     -0.95102027535637
  C           0.85598038380129      0.05583679787983     -1.35175784383620
  C          -0.37819434054119      0.75819392583740     -0.87692594907493
  C          -1.50241042859799     -0.22856837109070     -0.39719696437203
  C          -2.60200782868830      0.44702193246546      0.48754371593040
  C          -3.92819762602408     -0.37054775223994      0.60348952846528
  F           2.50793351506850     -1.84991898160631      0.01007437357805
  F           2.01323070616022     -0.17888616634643      1.34580024767596
  F           2.48568204164324      1.60173259540451     -0.66433769287701
  F           3.07895937852269     -0.04652462760921     -2.00224526601443
  F           0.65499036222910     -0.94885653844384     -2.19215244820849
  F          -0.06836487053879      1.58831106648757      0.14588094415535
  F          -0.90595215221829      1.51263353313551     -1.88545910875613
  F          -0.92652060859032     -1.21407118185337      0.32822275121146
  F          -2.08360949842663     -0.78483974082511     -1.48255998884006
  F          -2.91683402329633      1.65869439218659     -0.01929169803289
  F          -2.11131788724156      0.61307900256797      1.73264366171433
  F          -3.67360968012829     -1.64204672148848      0.93094167020219
  F          -4.68840029038483      0.17466134982000      1.55854924764746
  F          -4.60804761962949     -0.34517947020877     -0.54466493945734
  H           5.96371353618228     -0.96102288097684      0.14144684967921
