!TPSSh def2-TZVP freq d3 TightSCF SlowConv defgrid2
 
%pal
nprocs 20
end
 
%scf
MaxIter 1500
end
 
%maxcore 8000
 
!CPCM
%cpcm smd true
SMDsolvent "ACETONITRILE"
end
 
* xyz -1 2
6        4.457775000     -0.662862000     -0.366731000
8        4.042301000     -1.074161000     -1.477432000
8        5.502853000     -0.945419000      0.259788000
6        3.547124000      0.317219000      0.315815000
6        2.243560000      0.886030000     -0.156325000
6        1.004242000     -0.041565000      0.094488000
6       -0.387246000      0.671717000      0.030861000
6       -1.590991000     -0.320224000     -0.135043000
6       -2.968291000      0.298669000      0.274497000
6       -4.214083000     -0.485912000     -0.248532000
9        3.773892000      0.613502000      1.609502000
9        1.987818000      2.056514000      0.519664000
9        2.279054000      1.185633000     -1.479259000
9        1.014327000     -1.042942000     -0.811758000
9        1.132863000     -0.583629000      1.331974000
9       -0.568593000      1.379281000      1.168674000
9       -0.403676000      1.528642000     -1.013377000
9       -1.380293000     -1.412152000      0.632492000
9       -1.655461000     -0.710429000     -1.426278000
9       -3.058116000      1.560381000     -0.201021000
9       -3.045720000      0.334303000      1.620221000
9       -4.116733000     -1.787090000      0.042719000
9       -5.307587000      0.004621000      0.344485000
9       -4.349199000     -0.344521000     -1.568616000
*
