25
Coordinates from ORCA-job rf_mecn_opt_B3L_C6_P_B E -1853.736727861300
  C           4.66314787755198     -0.31737030919264      0.10466556414607
  O           5.06809989890005     -1.18345930060418     -0.81053095228697
  O           5.28584196039104      0.59305487876141      0.56961889587842
  C           3.19872587546946     -0.60119043732369      0.54022342762801
  C           2.18673452797543      0.23316463459007     -0.30800502393055
  C           0.69127338615441     -0.19952181641368     -0.13784955017793
  C          -0.35883940140619      0.86811783350076     -0.60270987583498
  C          -1.75103039729077      0.31879262861444     -0.70222418468250
  C          -2.84598869292400      0.53247884008668      0.29134012583720
  C          -4.00809784400192     -0.50139662218348      0.18307919459119
  F           2.89840396230715     -1.91313784410628      0.41092365047859
  F           3.07012850902539     -0.25704661382917      1.83657098520792
  F           2.32669179122659      1.53017032115153      0.03450548374154
  F           2.52045303004379      0.09852620275528     -1.61013536729820
  F           0.48987769107614     -1.31883042356113     -0.86564985673131
  F           0.44572042656255     -0.48105459134039      1.15759257005423
  F          -0.34793846835695      1.89626206337429      0.27466787659502
  F           0.02832689701898      1.32352907232755     -1.82196622518347
  F          -2.04303796449739     -0.32464701860728     -1.81630255437054
  F          -3.40496587005068      1.77176620258532      0.16001385573198
  F          -2.34692204949143      0.45626418718523      1.55017303540363
  F          -3.52986113548205     -1.74544310513128      0.27545968303605
  F          -4.86946427766683     -0.29778557884866      1.18119414132935
  F          -4.65801863972272     -0.36990754542739     -0.97453230517976
  H           5.98705847818790     -0.97436580536331     -1.07182284698297
