25
Coordinates from ORCA-job rf_mecn_opt_TP_C7_P_B E -1854.407198636901
  C           4.67495050454965      0.15320026911152     -0.46759588451421
  O           5.01964196134993     -0.69458718437759     -1.42740174695799
  O           5.15888428462938      1.22707588569080     -0.23450196584957
  C           3.49619407301511     -0.40807297123673      0.37436945100682
  C           2.11799646563175      0.05862008762609     -0.19326969758126
  C           0.87545598335861     -0.66721727167259      0.42653608531613
  C          -0.46707995593328      0.10895070501949      0.20950658663509
  C          -1.76503413278257     -0.75039586481874      0.38940135929058
  C          -3.00745527597946      0.08534511917232      0.47827415258590
  C          -4.03780085096942      0.25874700016567     -0.59760896288934
  F           3.51832532102753     -1.76252176550598      0.40217014535618
  F           3.62704535051523      0.04895918985721      1.63757240184946
  F           2.00994564871521      1.38955924332179      0.01902360377686
  F           2.11513199081604     -0.16380020027420     -1.52747219170450
  F           0.77343969271412     -1.89095244545766     -0.13585664107513
  F           1.06731602295023     -0.82155610664967      1.75394198237863
  F          -0.51988603252502      1.12714227747600      1.09698073099699
  F          -0.49038806868938      0.62522286845745     -1.04007059371089
  F          -1.62924810839196     -1.48109415184825      1.52767088382176
  F          -1.87245293585321     -1.59538752422714     -0.66427662824262
  F          -3.32407137037578      0.54747405055435      1.67458617574323
  F          -4.88784247871230     -0.79044857674730     -0.67540083310670
  F          -4.77530711277625      1.35165240786191     -0.35466263439108
  F          -3.45757128160402      0.38923967480975     -1.80149687940617
  H           5.75313167631985     -0.30560106330848     -1.94742415232817
