!r2scanh def2-TZVP freq d3 TightSCF SlowConv defgrid2
 
%pal
nprocs 20
end
 
%scf
MaxIter 1500
end
 
%maxcore 8000
 
!CPCM
%cpcm smd true
SMDsolvent "ACETONITRILE"
end
 
* xyz -1 2
6        6.978466000     27.031997000      1.668192000
6        6.298155000     25.684688000      2.034653000
6        7.302636000     24.531697000      2.313173000
6        6.677033000     23.336001000      3.102176000
6        7.479308000     22.085211000      2.981174000
6        7.068037000     20.770466000      2.392051000
6        7.131160000     20.702561000      0.848526000
6        6.765980000     19.293617000      0.272515000
9        7.910819000     26.846397000      0.739494000
9        7.534908000     27.584357000      2.737847000
9        6.058691000     27.862569000      1.191753000
9        5.537065000     25.898089000      3.119297000
9        5.509580000     25.330819000      1.011161000
9        7.757289000     24.077798000      1.133639000
9        8.343560000     25.010828000      3.013966000
9        6.601855000     23.717574000      4.401709000
9        5.426594000     23.129533000      2.653352000
9        8.772984000     22.236201000      3.205242000
9        7.904973000     19.825313000      2.880479000
9        5.811177000     20.469290000      2.780610000
9        6.295673000     21.658411000      0.372596000
9        8.392509000     21.070895000      0.498876000
8        7.718626000     18.510073000      0.155702000
8        5.564228000     19.130586000      0.019235000
8        3.318435000     20.701360000      0.430690000
1        2.718930000     20.026755000      0.762218000
1        4.159739000     20.224051000      0.291776000
1        9.394400000     18.696085000      0.747611000
8       10.321444000     18.716139000      1.058248000
1       10.395154000     19.558770000      1.514713000
*
