28
Coordinates from ORCA-job rf_mecn_1H2O_opt_r2s_sw_004 E -2029.491147097643
  C           6.83403925958809     28.25280561877292      2.60592868620371
  C           6.28470283893335     26.82690626202493      2.78182760140924
  C           6.90357696744318     25.58423080439381      2.08523711559634
  C           6.42480986867379     24.09411030408056      2.17011676792469
  C           7.04745883800432     22.85084662160257      1.46885033454520
  C           6.53957887922943     21.40114288023296      1.70433730738847
  C           7.03750565817117     20.25678025003632      0.78590950293401
  C           6.70860021759830     18.83350212560021      1.33357884866033
  F           6.77733569112480     28.62771836145316      1.32554127630916
  F           8.10388034879811     28.32484925174579      3.01299392192545
  F           6.14474220376080     29.18215266332080      3.31434998435286
  F           6.33084142088507     26.59354586182145      4.12966713760893
  F           4.97714769628252     26.89943667826423      2.38616877540187
  F           6.85917293519637     25.89021726366693      0.73479611092612
  F           8.21764117751446     25.56657577085684      2.50961176496303
  F           6.47059659403376     23.79231994938372      3.52210737125475
  F           5.11006859202038     24.12674344225086      1.75486326238188
  F           6.94124808971986     23.08142456957728      0.12212894708936
  F           8.37361139234319     22.84930364375652      1.80874007193128
  F           6.86626471429956     21.06592144713853      2.98258848424967
  F           5.18314625621678     21.42058773114353      1.61400837235488
  F           6.47520587427127     20.43942819296687     -0.44343107858122
  F           8.38150789226599     20.41668394046341      0.62066258984110
  O           7.63571849330059     18.24514207216648      1.89766024409655
  O           5.52347404149937     18.47519065318918      1.15833347563311
  O           3.28857571739289     19.44114460287278     -0.07053526369760
  H           3.07909141854133     18.67591415708124     -0.61286319790948
  H           4.13920864689092     19.20269246513515      0.35743999520623
