!B3LYP def2-TZVP freq d3 TightSCF SlowConv defgrid2
 
%pal
nprocs 20
end
 
%scf
MaxIter 1500
end
 
%maxcore 8000
 
!CPCM
%cpcm smd true
SMDsolvent "ACETONITRILE"
end
 
* xyz -1 1
6        6.886647000     27.972150000      2.963062000
6        6.116906000     26.696167000      2.490808000
6        7.044147000     25.489399000      2.120530000
6        6.286233000     24.115682000      2.069377000
6        7.066810000     23.007812000      1.277120000
6        6.585285000     21.551276000      1.593689000
6        7.016630000     20.475962000      0.554650000
6        6.908080000     19.011070000      1.136803000
9        7.853985000     28.285659000      2.098119000
9        7.423943000     27.785901000      4.168052000
9        6.026967000     28.990445000      3.033762000
9        5.279885000     26.336129000      3.484422000
9        5.390588000     27.033476000      1.409518000
9        7.597244000     25.740414000      0.917167000
9        8.028263000     25.399591000      3.037026000
9        6.087381000     23.701585000      3.336619000
9        5.086909000     24.301075000      1.481696000
9        6.909535000     23.251543000     -0.040666000
9        8.378549000     23.107220000      1.580283000
9        7.095450000     21.203291000      2.800702000
9        5.237545000     21.562237000      1.691890000
9        6.225118000     20.612306000     -0.549446000
9        8.288616000     20.767491000      0.162204000
8        7.979656000     18.446221000      1.362146000
8        5.731397000     18.626637000      1.301824000
8        3.184827000     19.327843000      0.484795000
1        2.824612000     18.444105000      0.345204000
1        4.117543000     19.174630000      0.749264000
*
