!TPSSh def2-TZVP freq d3 TightSCF SlowConv defgrid2
 
%pal
nprocs 20
end
 
%scf
MaxIter 1500
end
 
%maxcore 8000
 
!CPCM
%cpcm smd true
SMDsolvent "ACETONITRILE"
end
 
* xyz -2 2
6        7.304885000     27.849027000      2.863778000
6        6.843165000     26.385171000      3.069191000
6        7.235481000     25.223179000      2.101389000
6        6.807824000     23.706617000      2.199545000
6        7.199014000     22.526259000      1.242625000
6        6.757671000     21.041644000      1.449003000
6        7.058892000     19.954300000      0.372924000
6        6.721582000     18.496553000      0.819239000
9        6.862776000     28.332370000      1.690861000
9        8.645485000     27.936757000      2.880416000
9        6.844648000     28.690188000      3.832734000
9        7.294075000     26.040419000      4.321128000
9        5.469421000     26.445085000      3.094727000
9        6.790678000     25.641585000      0.853343000
9        8.622833000     25.212355000      2.107688000
9        7.246987000     23.304239000      3.458012000
9        5.419940000     23.736150000      2.191837000
9        6.740973000     22.891288000     -0.007484000
9        8.578499000     22.509183000      1.216264000
9        7.329470000     20.617931000      2.619709000
9        5.397323000     21.042226000      1.626218000
9        6.354767000     20.285885000     -0.755423000
9        8.389224000     20.056190000      0.041627000
8        7.641473000     17.876323000      1.396655000
8        5.556245000     18.111340000      0.580268000
8        3.385533000     19.007258000     -0.838276000
1        2.744307000     18.363348000     -0.510235000
1        4.219608000     18.778120000     -0.363187000
1        9.157837000     18.486555000      2.039862000
8       10.022814000     18.755602000      2.434280000
1       10.060783000     19.707693000      2.275498000
*
