30
Coordinates from ORCA-job rf_mecn_2H2O_opt_r2s_con_002 E -2005.987709080550
  C           6.97846603966521     27.03199748850386      1.66819184310809
  C           6.29815510161393     25.68468763159150      2.03465308376013
  C           7.30263633680561     24.53169712279350      2.31317295201559
  C           6.67703250029678     23.33600127960169      3.10217629834089
  C           7.47930844567952     22.08521128708440      2.98117443678762
  C           7.06803650135631     20.77046551150600      2.39205108420097
  C           7.13115951736775     20.70256121483764      0.84852607944638
  C           6.76597984863124     19.29361749278269      0.27251532254262
  F           7.91081863232596     26.84639651763997      0.73949391040999
  F           7.53490846483388     27.58435703831850      2.73784654403892
  F           6.05869106059889     27.86256854457572      1.19175344864930
  F           5.53706468107800     25.89808879811009      3.11929712032290
  F           5.50958027038245     25.33081911816538      1.01116116243802
  F           7.75728926861007     24.07779840140247      1.13363917825396
  F           8.34356017917166     25.01082832669978      3.01396611128302
  F           6.60185510565768     23.71757383427662      4.40170929989699
  F           5.42659398392526     23.12953322908095      2.65335228057596
  F           8.77298407083983     22.23620051511287      3.20524164848282
  F           7.90497286591564     19.82531301672095      2.88047920126231
  F           5.81117701318794     20.46928997875679      2.78061048225901
  F           6.29567321998786     21.65841118293732      0.37259620745736
  F           8.39250916796768     21.07089512128861      0.49887581870972
  O           7.71862550351948     18.51007341486222      0.15570246554071
  O           5.56422762394749     19.13058628642854      0.01923522214193
  O           3.31843485356073     20.70135988841836      0.43068971362546
  H           2.71893023025108     20.02675499036521      0.76221800958002
  H           4.15973873562780     20.22405147194337      0.29177635676319
  H           9.39439960970745     18.69608535220017      0.74761143994225
  O          10.32144361486581     18.71613890071758      1.05824844883985
  H          10.39515438162020     19.55876972927440      1.51471289432379
