!r2scanh def2-TZVP opt d3 TightSCF SlowConv defgrid2
 
%pal
nprocs 20
end
 
%scf
MaxIter 1500
end
 
%maxcore 8000
 
!CPCM
%cpcm smd true
SMDsolvent "ACETONITRILE"
end
 
* xyz -1 2
6        6.857281000     27.901753000      3.100720000
6        6.154045000     26.704598000      2.411136000
6        7.086540000     25.482838000      2.185614000
6        6.299617000     24.171731000      1.900071000
6        7.185882000     23.070259000      1.248992000
6        6.565391000     21.647303000      1.360367000
6        7.185682000     20.616666000      0.394673000
6        6.843395000     19.121603000      0.784431000
9        8.006807000     28.182557000      2.503586000
9        7.082781000     27.647576000      4.378926000
9        6.067589000     28.966668000      3.018349000
9        5.116419000     26.361022000      3.182511000
9        5.702796000     27.135986000      1.230361000
9        7.887906000     25.777720000      1.156932000
9        7.829892000     25.318192000      3.287322000
9        5.806495000     23.745652000      3.066653000
9        5.287432000     24.474179000      1.076604000
9        7.350610000     23.413929000     -0.034316000
9        6.756127000     21.255165000      2.631171000
9        5.250982000     21.784657000      1.133609000
9        6.706597000     20.903759000     -0.845345000
9        8.519171000     20.869305000      0.364164000
8        7.813742000     18.363469000      0.789216000
8        5.634556000     18.967368000      0.997889000
8        2.818390000     18.736600000      1.412613000
1        2.716934000     17.791620000      1.243556000
1        3.748071000     18.906228000      1.215687000
*
