27
Coordinates from ORCA-job rf_mecn_1H2O_opt_r2s_con_002 E -1929.551778622582
  C           7.93028265563299     27.23313964923305      2.96976738186874
  C           6.62807164651684     26.69674451848323      2.31514603951993
  C           6.69298791978931     25.19491745431840      1.92058554546662
  C           5.30902832336284     24.53325980249596      1.65205239939213
  C           5.40346748368839     23.20341652958624      0.97481253243392
  C           5.56356034498600     21.85404938300525      1.59623614842317
  C           6.74368093596617     21.03028728826224      1.02557294443461
  C           7.09176196220102     19.78156064354238      1.91032239903548
  F           8.98918597785809     26.90365991179640      2.23784858051383
  F           8.08050521859778     26.74662493018524      4.19398685529175
  F           7.85709223277603     28.55719983854250      3.04605930168897
  F           5.62534280192522     26.89840093090548      3.18394216055089
  F           6.39883438597185     27.42262199666770      1.21193671695043
  F           7.42640626943401     25.09192046390466      0.79875465441184
  F           7.30280559032845     24.50613315236649      2.89938345380642
  F           4.66085976424664     24.41243215500666      2.82411826320072
  F           4.61271390652524     25.37452752202534      0.85310961481164
  F           5.49287710643882     23.25066702785161     -0.34139143135404
  F           5.76457222289802     22.00191684257218      2.92677079906679
  F           4.42126248625154     21.13771722272928      1.43232432657903
  F           6.42309131914328     20.65460401929675     -0.23996376985752
  F           7.79819168384512     21.88273450840694      0.92389209796953
  O           8.10668700633363     19.88298252849734      2.59753932263057
  O           6.27020511204867     18.85059829445154      1.80252275989658
  O           4.18772314832391     18.20269457003744      0.12864312087706
  H           4.59489908424796     17.47841601535270     -0.35434633714905
  H           4.90503341066188     18.53517580047604      0.70586611953992
