!TPSSh def2-TZVP freq d3 TightSCF SlowConv defgrid2
 
%pal
nprocs 20
end
 
%scf
MaxIter 1500
end
 
%maxcore 8000
 
!CPCM
%cpcm smd true
SMDsolvent "ACETONITRILE"
end
 
* xyz -1 2
6        6.915873000     27.157447000      1.747140000
6        6.261927000     25.777691000      2.080460000
6        7.286888000     24.619345000      2.311808000
6        6.688821000     23.375671000      3.063913000
6        7.510415000     22.136307000      2.907520000
6        7.103428000     20.792764000      2.370231000
6        7.188780000     20.641721000      0.824563000
6        6.779803000     19.218289000      0.292909000
9        7.842922000     27.027516000      0.792118000
9        7.483245000     27.688657000      2.832711000
9        5.967571000     27.993158000      1.312130000
9        5.505061000     25.947366000      3.186715000
9        5.455854000     25.443411000      1.052267000
9        7.742076000     24.214061000      1.104980000
9        8.335390000     25.092873000      3.022444000
9        6.603259000     23.714665000      4.386708000
9        5.432639000     23.159995000      2.609420000
9        8.808168000     22.292069000      3.148746000
9        7.929189000     19.861297000      2.926167000
9        5.830729000     20.512374000      2.758790000
9        6.397026000     21.615456000      0.285626000
9        8.476180000     20.950124000      0.475444000
8        7.702719000     18.383405000      0.253512000
8        5.580532000     19.093771000     -0.015942000
8        3.301326000     20.654196000      0.238905000
1        2.712446000     19.995842000      0.630845000
1        4.160409000     20.183459000      0.147764000
1        9.382184000     18.469104000      0.838715000
8       10.316612000     18.431095000      1.147282000
1       10.447942000     19.275008000      1.598798000
*
