!B3LYP def2-TZVP freq d3 TightSCF SlowConv defgrid2
 
%pal
nprocs 20
end
 
%scf
MaxIter 1500
end
 
%maxcore 8000
 
!CPCM
%cpcm smd true
SMDsolvent "ACETONITRILE"
end
 
* xyz -1 1
6        7.418057000     27.544921000      3.038601000
6        6.561153000     26.327061000      2.561106000
6        7.405969000     25.080944000      2.130351000
6        6.563991000     23.756975000      2.054407000
6        7.240136000     22.645392000      1.176553000
6        6.683882000     21.206524000      1.449355000
6        6.972427000     20.170598000      0.323107000
6        6.818648000     18.688986000      0.837739000
9        8.388493000     27.809862000      2.160435000
9        7.963387000     27.304424000      4.230417000
9        6.627486000     28.615075000      3.139954000
9        5.736146000     25.986896000      3.571368000
9        5.822876000     26.732476000      1.511959000
9        7.946636000     25.340905000      0.923270000
9        8.403174000     24.900333000      3.018839000
9        6.397831000     23.296039000      3.309830000
9        5.351958000     24.035903000      1.533641000
9        7.039541000     22.961545000     -0.119715000
9        8.567605000     22.649520000      1.421671000
9        7.245728000     20.757342000      2.597407000
9        5.348646000     21.289776000      1.639096000
9        6.109349000     20.410302000     -0.703867000
9        8.226607000     20.405155000     -0.151374000
8        7.877138000     18.069393000      1.020731000
8        5.641919000     18.328037000      1.007619000
8        3.071988000     19.210601000      0.405220000
1        2.613362000     18.362625000      0.442175000
1        4.007190000     18.993225000      0.598889000
1        9.548171000     18.713452000      1.291504000
8       10.453921000     18.979179000      1.555231000
1       10.650800000     18.437376000      2.328701000
*
