!r2scanh def2-TZVP freq d3 TightSCF SlowConv defgrid2
 
%pal
nprocs 20
end
 
%scf
MaxIter 1500
end
 
%maxcore 8000
 
!CPCM
%cpcm smd true
SMDsolvent "ACETONITRILE"
end
 
* xyz -1 2
6        7.930283000     27.233140000      2.969767000
6        6.628072000     26.696745000      2.315146000
6        6.692988000     25.194917000      1.920586000
6        5.309028000     24.533260000      1.652052000
6        5.403467000     23.203417000      0.974813000
6        5.563560000     21.854049000      1.596236000
6        6.743681000     21.030287000      1.025573000
6        7.091762000     19.781561000      1.910322000
9        8.989186000     26.903660000      2.237849000
9        8.080505000     26.746625000      4.193987000
9        7.857092000     28.557200000      3.046059000
9        5.625343000     26.898401000      3.183942000
9        6.398834000     27.422622000      1.211937000
9        7.426406000     25.091920000      0.798755000
9        7.302806000     24.506133000      2.899383000
9        4.660860000     24.412432000      2.824118000
9        4.612714000     25.374528000      0.853110000
9        5.492877000     23.250667000     -0.341391000
9        5.764572000     22.001917000      2.926771000
9        4.421262000     21.137717000      1.432324000
9        6.423091000     20.654604000     -0.239964000
9        7.798192000     21.882735000      0.923892000
8        8.106687000     19.882983000      2.597539000
8        6.270205000     18.850598000      1.802523000
8        4.187723000     18.202695000      0.128643000
1        4.594899000     17.478416000     -0.354346000
1        4.905033000     18.535176000      0.705866000
*
