31
Coordinates from ORCA-job rf_mecn_2H2O_opt_B3L_con_001 E -2106.085300738690
  C           7.41805666025017     27.54492133640026      3.03860118937310
  C           6.56115337054295     26.32706077761381      2.56110567973029
  C           7.40596872949619     25.08094394540435      2.13035054446953
  C           6.56399109763682     23.75697532413680      2.05440742491938
  C           7.24013554393278     22.64539187085427      1.17655321589288
  C           6.68388214857741     21.20652359363203      1.44935453768335
  C           6.97242698514229     20.17059752146072      0.32310724215385
  C           6.81864832647657     18.68898579425375      0.83773908935239
  F           8.38849299162935     27.80986172261647      2.16043491713595
  F           7.96338723645474     27.30442355642199      4.23041703487236
  F           6.62748596866978     28.61507496390306      3.13995443284745
  F           5.73614638538499     25.98689641681857      3.57136821023312
  F           5.82287597837152     26.73247578952346      1.51195872736282
  F           7.94663600023945     25.34090491845167      0.92326975014902
  F           8.40317420220499     24.90033251071859      3.01883858676237
  F           6.39783059491463     23.29603864933366      3.30982990899276
  F           5.35195833929376     24.03590273958266      1.53364106323573
  F           7.03954103850834     22.96154453049132     -0.11971461675306
  F           8.56760530496759     22.64951990921955      1.42167108539984
  F           7.24572779559486     20.75734163494467      2.59740749400756
  F           5.34864617013897     21.28977617311387      1.63909552421778
  F           6.10934948441238     20.41030171180257     -0.70386673415132
  F           8.22660748213077     20.40515452068454     -0.15137440019989
  O           7.87713766713855     18.06939301750791      1.02073056758433
  O           5.64191860498606     18.32803677245436      1.00761904191726
  O           3.07198824580325     19.21060125510442      0.40521990407554
  H           2.61336184124069     18.36262543285070      0.44217475493634
  H           4.00718997418045     18.99322539658827      0.59888941944821
  H           9.54817110117996     18.71345248972723      1.29150378385424
  O          10.45392140931166     18.97917914252124      1.55523071373498
  H          10.65079994818775     18.43737623286214      2.32870061176176
