25
Coordinates from ORCA-job rf_mecn_opt_B3L_C4_P_B E -1853.737129026292
  C           4.24809320226031     -0.31762001032547      0.63413775050617
  O           5.02092960725934     -1.12903958316802     -0.07243996240068
  O           4.59811021301917      0.50074465235655      1.43465769420688
  C           2.75321964066940     -0.53489274515424      0.28629774938789
  C           2.28633063952205      0.28353550567765     -0.96028437475013
  C           0.85602457989850      0.04830621064963     -1.35274401378760
  C          -0.36735134986838      0.75676074160249     -0.86306690553550
  C          -1.50540468482658     -0.22812408687043     -0.40818842539489
  C          -2.60411156319247      0.44590647956060      0.47942567261369
  C          -3.92561122648776     -0.37917048363151      0.60612805022805
  F           2.49907147586537     -1.84129428939173      0.03602403536624
  F           2.00722439667007     -0.15047339342391      1.34250815013704
  F           2.49532680121524      1.59508890787214     -0.69435044324085
  F           3.07793367263220     -0.07635465014316     -2.00194439532869
  F           0.64598108813655     -0.94959914521453     -2.19277541841107
  F          -0.04775258221704      1.55951439689426      0.17564230036263
  F          -0.88300580581074      1.53999639836768     -1.85370694477780
  F          -0.94905826936922     -1.23058933145281      0.30384209329120
  F          -2.08071777680338     -0.75546756083116     -1.50782031675270
  F          -2.92663164027125      1.65108263295665     -0.03055421720971
  F          -2.10912575642778      0.61661742521282      1.71981420894781
  F          -3.66145753781597     -1.64040254846995      0.95520478164254
  F          -4.68915312492861      0.17712395129194      1.54912738061672
  F          -4.60113902949434     -0.37680746834700     -0.54246335024391
  H           5.95845360136530     -0.96155215301848      0.15025904752669
