25
Coordinates from ORCA-job rf_mecn_opt_B3L_C3_P_B E -1853.734957204666
  C           4.42570419224471      0.38309193301176     -0.14547011429849
  O           5.28057173786094     -0.35533529071495     -0.83729190936877
  O           4.45017643749312      1.57044905617446      0.00231852439464
  C           3.31002057339124     -0.50010937892590      0.48013443573195
  C           2.20076691332939     -0.76805251502590     -0.48486469969553
  C           0.81234547235564     -1.21043220866384     -0.14027836107185
  C          -0.23623648048874     -0.04378392028694     -0.17624998388570
  C          -1.73322780235606     -0.50583274446800     -0.13175936834058
  C          -2.72012713724716      0.63697194370401      0.28556063020991
  C          -4.21820723200832      0.35069736049189     -0.05793086351657
  F           3.85402413598263     -1.67610688686171      0.93052103396442
  F           2.82202253799704      0.13848240980771      1.57411409768561
  F           2.46253724116260     -0.61788068018014     -1.77187270132592
  F           0.40590420510586     -2.15598210135676     -1.02849366014814
  F           0.81617648006046     -1.74764615781890      1.10011166249872
  F           0.01262297350841      0.76828137360039      0.87126360757982
  F          -0.04486480992310      0.65200744408186     -1.31620685120646
  F          -1.86627152967059     -1.51622553612282      0.75010092299849
  F          -2.07525948801548     -0.95625478482584     -1.35557112961561
  F          -2.37332811569583      1.78300485247538     -0.33405018663876
  F          -2.63324282851761      0.81791651428720      1.61622494058996
  F          -4.58148484257661     -0.85519048141421      0.38464265638057
  F          -4.97755300413273      1.27336305849065      0.53687145847028
  F          -4.42590601699967      0.41301064001837     -1.37278608831544
  H           5.96166875813987      0.22346915352224     -1.23445110607653
