24
Coordinates from ORCA-job rf_mecn_opt_r2s_C4_D_B E -1853.116905788082
  C           3.80397183883260     -0.78894030329768     -1.07148375856132
  O           3.38137462459270     -1.49926972603750     -1.98966609105795
  O           4.87582139218293     -0.18882007621496     -0.91590595123840
  C           2.80451953107612     -0.58503502931002      0.12634264763788
  C           2.17359675173894      0.82940359871147      0.15434604594517
  C           0.98118777709740      0.94733338775102      1.04883080366438
  C          -0.43928298577982      1.24375101694695      0.68635972327534
  C          -1.24237955869636     -0.00193049814165      0.20894563711951
  C          -2.78291433406451      0.20778838274073      0.15498069248259
  C          -3.52599405723585     -0.82796061140914     -0.73146848176426
  F           1.76352105351267     -1.46422869872260      0.08144613387692
  F           3.42386448241801     -0.78728857777213      1.32064032519611
  F           3.11746528842497      1.71704671526447      0.55909888367534
  F           1.81430396070501      1.15314674100257     -1.10906380194215
  F           1.15687962182360      0.50411901163476      2.28133928186608
  F          -1.06793289572284      1.72285385166198      1.78560265572621
  F          -0.49040617205577      2.17536547577031     -0.28185190990700
  F          -0.99228915076076     -1.01167802011243      1.05928110314126
  F          -0.79554889286426     -0.34578058546045     -1.01066725403208
  F          -3.06602694941800      1.42898343957708     -0.32377490942474
  F          -3.27325498187852      0.10672737595826      1.39814439201195
  F          -3.13955559199451     -2.06223971642984     -0.42593720934352
  F          -4.83202428528891     -0.72181990795280     -0.51397037212033
  F          -3.29151846664484     -0.60441044615840     -2.01718678622700
