26
Coordinates from ORCA-job rf_mecn_opt_B3L_P_A-2 E -1953.719285944616
  C           4.87468324996269      0.06008840840494     -0.24990949139501
  O           5.25111861137965     -0.22093695266539     -1.42278793884489
  O           5.22933794407414      1.30858914047601      0.31993770519312
  H           5.67925989133992      1.78188651835370     -0.39698267451753
  C           3.58501950618950     -0.43023115764988      0.31217061480655
  C           2.24992265981194      0.22404738909337     -0.19773322287933
  C           0.89131570706882     -0.46162442682750      0.17653368121100
  C          -0.38195114258317      0.43029367971235     -0.02503064384779
  C          -1.73021080858867     -0.37321065264560     -0.04398256893402
  C          -2.99478654549921      0.51771542659667      0.19655701019105
  C          -4.34927778067063     -0.16476483373563     -0.18243406999486
  F           3.44950624184210     -1.77774912700474      0.03350872889439
  F           3.55411499828287     -0.28155322958882      1.68901774232617
  F           2.20633976213999      1.50398636968057      0.26367918146694
  F           2.30033136517120      0.27084790102602     -1.55603182649622
  F           0.74857858178342     -1.57548661427084     -0.58117135998185
  F           0.92118438161721     -0.83226561854141      1.47787443918912
  F          -0.43650563005314      1.33531202742858      0.97620371717983
  F          -0.28010519522006      1.09291491838930     -1.19756804934307
  F          -1.70047553466902     -1.31848573354772      0.91852419268461
  F          -1.85249910087397     -0.98227299333021     -1.24138563575150
  F          -2.89530665697833      1.64995407342045     -0.52978078654624
  F          -3.05806860814686      0.84173644060308      1.50181881161211
  F          -4.45031453474306     -1.36587251047543      0.39204729603417
  F          -5.35112094973481      0.60396643913840      0.25249641628622
  F          -4.46511941290254     -0.30314288004026     -1.50269626654299
