!TPSSh def2-TZVP freq d3 TightSCF SlowConv defgrid2
 
%pal
nprocs 20
end
 
%scf
MaxIter 1500
end
 
%maxcore 8000
 
!CPCM
%cpcm smd true
SMDsolvent "ACETONITRILE"
end
 
* xyz -1 2
6        4.690093000      0.312596000     -0.661274000
8        5.303574000     -0.541725000     -1.319160000
8        4.820626000      1.547284000     -0.571506000
6        3.518533000     -0.244747000      0.244574000
6        2.118771000      0.265888000     -0.199858000
6        0.903578000     -0.562043000      0.335157000
6       -0.472005000      0.178085000      0.224862000
6       -1.730795000     -0.748919000      0.318031000
6       -3.009715000      0.012638000      0.507026000
6       -4.087395000      0.187901000     -0.522041000
9        3.468799000     -1.613048000      0.243578000
9        3.708374000      0.130186000      1.550800000
9        1.950574000      1.550726000      0.198229000
9        2.068994000      0.234110000     -1.558405000
9        0.822684000     -1.721681000     -0.357851000
9        1.109548000     -0.857437000      1.639753000
9       -0.560287000      1.085440000      1.225167000
9       -0.542534000      0.835815000     -0.955164000
9       -1.552326000     -1.597504000      1.366648000
9       -1.819075000     -1.475281000     -0.823686000
9       -3.326059000      0.336551000      1.748509000
9       -4.791688000     -0.946082000     -0.740133000
9       -4.955230000      1.126444000     -0.120081000
9       -3.566838000      0.559131000     -1.704461000
*
