24
Coordinates from ORCA-job rf_mecn_opt_r2s_C8_D_B E -1853.098155930628
  C           4.78826004667175      0.07305791900548     -0.37297510396416
  O           5.36904035292564     -0.79762112383599     -1.02808955268807
  O           5.03980062767384      1.27055193195434     -0.17894523811016
  C           3.47881539861213     -0.39795712691160      0.36246331786119
  C           2.21412897337305      0.30294238018971     -0.18551572771751
  C           0.87610450947025     -0.41675383590245      0.15575722109512
  C          -0.37598985146433      0.49712441829727     -0.00282437836034
  C          -1.70805127905818     -0.30591084284901     -0.09785553352774
  C          -2.97027649200869      0.53892692256162      0.22385228795824
  C          -4.24443337417601     -0.17365366274648     -0.18162328730814
  F           3.27599446423525     -1.73756907999288      0.24974262135125
  F           3.56092542639427     -0.12940403804377      1.69474306875964
  F           2.14399685591645      1.55801850098006      0.29479583250695
  F           2.31185378873840      0.36539294877308     -1.53070817976348
  F           0.72892174803454     -1.47838234238600     -0.65608522613150
  F           0.91725506693191     -0.84603646002829      1.42810678014863
  F          -0.44309760173689      1.32506330178577      1.05173720564231
  F          -0.24824292731161      1.22925980411699     -1.12097961864662
  F          -1.67489400992827     -1.33429751114759      0.76543771057162
  F          -1.82603993610121     -0.79371331311838     -1.34312190147693
  F          -2.86606358084877      1.73098528667126     -0.41557914937040
  F          -3.02221879069949      0.76825120869855      1.54282977952749
  F          -5.30826046006779      0.18536861059804      0.50435971448581
  F          -4.48300655557623     -0.19571089666971     -1.47510744284319
