!B3LYP def2-TZVP freq d3 TightSCF SlowConv defgrid2
 
%pal
nprocs 20
end
 
%scf
MaxIter 1500
end
 
%maxcore 8000
 
!CPCM
%cpcm smd true
SMDsolvent "ACETONITRILE"
end
 
* xyz -1 2
6        4.874683000      0.060088000     -0.249909000
8        5.251119000     -0.220937000     -1.422788000
8        5.229338000      1.308589000      0.319938000
1        5.679260000      1.781887000     -0.396983000
6        3.585020000     -0.430231000      0.312171000
6        2.249923000      0.224047000     -0.197733000
6        0.891316000     -0.461624000      0.176534000
6       -0.381951000      0.430294000     -0.025031000
6       -1.730211000     -0.373211000     -0.043983000
6       -2.994787000      0.517715000      0.196557000
6       -4.349278000     -0.164765000     -0.182434000
9        3.449506000     -1.777749000      0.033509000
9        3.554115000     -0.281553000      1.689018000
9        2.206340000      1.503986000      0.263679000
9        2.300331000      0.270848000     -1.556032000
9        0.748579000     -1.575487000     -0.581171000
9        0.921184000     -0.832266000      1.477874000
9       -0.436506000      1.335312000      0.976204000
9       -0.280105000      1.092915000     -1.197568000
9       -1.700476000     -1.318486000      0.918524000
9       -1.852499000     -0.982273000     -1.241386000
9       -2.895307000      1.649954000     -0.529781000
9       -3.058069000      0.841736000      1.501819000
9       -4.450315000     -1.365873000      0.392047000
9       -5.351121000      0.603966000      0.252496000
9       -4.465119000     -0.303143000     -1.502696000
*
