25
Coordinates from ORCA-job rf_mecn_opt_TP_C8_P_B E -1854.390098938897
  C           4.78119290183102     -0.04119912409371     -0.26704119836801
  O           5.13764686251164     -0.85486374353376     -1.25175796378633
  O           5.33197770117381      0.96634094598934      0.08391301728527
  C           3.48570542794786     -0.54041096293246      0.42873860656289
  C           2.21813273358646      0.13820809949946     -0.18200132136139
  C           0.86388759784528     -0.52865468216200      0.23885256239036
  C          -0.37926414427235      0.40167740681273      0.02198094572566
  C          -1.73976030557310     -0.37599991752055      0.02073703487806
  C          -2.99133542398101      0.53282782874997      0.23913057413289
  C          -4.27716982892236     -0.16165391216195     -0.17243500391484
  F           3.35701881272847     -1.88424758442336      0.31812966909994
  F           3.56106006163655     -0.22310905820656      1.73898265539738
  F           2.21518682345522      1.43574186395539      0.19579186252348
  F           2.32156484690833      0.08551510398246     -1.52976350709520
  F           0.69839325428141     -1.65419521034465     -0.48946982337501
  F           0.92445450079913     -0.86451086397158      1.54448423482901
  F          -0.40134932687255      1.32469397930400      1.00644026880248
  F          -0.24759384206834      1.03523251430505     -1.16344032697728
  F          -1.71463236324657     -1.31049642554661      0.99718104400509
  F          -1.87669628046034     -0.99921829683318     -1.17014141234412
  F          -2.86933972818941      1.65476084000849     -0.50824873386172
  F          -3.03497991599212      0.91049060502884      1.54833287131029
  F          -4.51115627138727     -1.32384885550884      0.41869217023869
  F          -5.34325018993210      0.62239954269452     -0.15176988210348
  H           5.94085566719233     -0.49814864009104     -1.68455299699413
