!TPSSh def2-TZVP freq d3 TightSCF SlowConv defgrid2
 
%pal
nprocs 20
end
 
%scf
MaxIter 1500
end
 
%maxcore 8000
 
!CPCM
%cpcm smd true
SMDsolvent "ACETONITRILE"
end
 
* xyz 0 2
6        4.749773000     -0.145042000     -0.310655000
8        5.662493000     -1.094264000     -0.060904000
8        4.991290000      1.019830000     -0.560579000
6        3.391774000     -0.666202000     -0.258324000
6        2.170161000      0.172723000     -0.516052000
6        0.839979000     -0.536882000     -0.101792000
6       -0.407070000      0.415631000     -0.063728000
6       -1.769911000     -0.359583000     -0.106552000
6       -2.986452000      0.495052000      0.387335000
6       -4.378145000     -0.056373000     -0.063888000
9        3.201294000     -1.967893000     -0.118289000
9        2.250840000      1.342543000      0.168637000
9        2.091464000      0.485664000     -1.843220000
9        0.598342000     -1.541943000     -0.972889000
9        0.998798000     -1.058645000      1.134617000
9       -0.355923000      1.143062000      1.072895000
9       -0.367880000      1.258839000     -1.115923000
9       -1.683214000     -1.457029000      0.675464000
9       -1.999364000     -0.754887000     -1.376983000
9       -2.877543000      1.757225000     -0.080813000
9       -2.973457000      0.529377000      1.734610000
9       -4.473740000     -1.365794000      0.188282000
9       -5.336367000      0.582235000      0.614100000
9       -4.571635000      0.149906000     -1.368096000
1        6.547963000     -0.684055000     -0.119377000
*
