!TPSSh def2-TZVP freq d3 TightSCF SlowConv defgrid2
 
%pal
nprocs 20
end
 
%scf
MaxIter 1500
end
 
%maxcore 8000
 
!CPCM
%cpcm smd true
SMDsolvent "ACETONITRILE"
end
 
* xyz -1 2
6        4.632930661     -0.041778802     -0.777541618
8        4.927839954     -0.917195020     -1.649816047
8        5.084321504      1.112482703     -0.526930161
6        3.446295593     -0.438865204      0.194680872
6        2.130538141      0.312326804     -0.156088668
6        0.822250510     -0.315199380      0.431136515
6       -0.419680351      0.635719604      0.420682322
6       -1.707460837     -0.089131595      0.671202234
6       -3.085596988      0.469043393      0.457640014
6       -3.925751848     -0.297911081     -0.612289691
9        3.172953547     -1.780679206      0.157276519
9        3.760318456     -0.149598461      1.497149429
9        2.218531753      1.595241837      0.270281499
9        2.003155040      0.330196519     -1.510757132
9        0.504271528     -1.410847996     -0.300092119
9        1.044591877     -0.698184389      1.710545414
9       -0.229224331      1.614665395      1.357585494
9       -0.482682557      1.252680228     -0.790283011
9       -1.659966744     -1.209533259      1.379472722
9       -3.004843509      1.760448993      0.059979002
9       -3.792623282      0.421272435      1.623348322
9       -4.094455086     -1.574028468     -0.242778575
9       -5.129127350      0.272484861     -0.753879730
9       -3.298608759     -0.274198096     -1.796649297
*
