!r2scanh def2-TZVP freq d3 TightSCF SlowConv defgrid2
 
%pal
nprocs 20
end
 
%scf
MaxIter 1500
end
 
%maxcore 8000
 
!CPCM
%cpcm smd true
SMDsolvent "ACETONITRILE"
end
 
* xyz -2 2
6        4.955752000      0.205942000     -0.280283000
8        5.418980000     -0.259481000     -1.331315000
8        5.331398000      1.156578000      0.424017000
6        3.653988000     -0.490537000      0.244906000
6        2.364177000      0.309860000     -0.063708000
6        0.991304000     -0.411805000      0.034002000
6       -0.359461000      0.360457000      0.029217000
6       -1.807398000     -0.243389000     -0.012722000
6       -3.175673000      0.495433000     -0.012394000
6       -4.537572000     -0.214907000     -0.044132000
9        3.503315000     -1.736449000     -0.293328000
9        3.712742000     -0.670037000      1.597118000
9        2.332631000      1.372951000      0.782487000
9        2.473088000      0.794962000     -1.329636000
9        0.939952000     -1.278015000     -1.023741000
9        1.014610000     -1.140377000      1.191779000
9       -0.339648000      1.142143000      1.164056000
9       -0.292853000      1.177576000     -1.087952000
9       -1.867011000     -1.066287000      1.104613000
9       -1.836188000     -1.017535000     -1.158810000
9       -3.181217000      1.311969000     -1.114735000
9       -3.207398000      1.269483000      1.118368000
9       -4.683073000     -1.005658000      1.022949000
9       -5.600317000      0.634091000     -0.042086000
9       -4.652722000     -0.963413000     -1.145128000
*
