!B3LYP def2-TZVP freq d3 TightSCF SlowConv defgrid2
 
%pal
nprocs 20
end
 
%scf
MaxIter 1500
end
 
%maxcore 8000
 
!CPCM
%cpcm smd true
SMDsolvent "ACETONITRILE"
end
 
* xyz -2 2
6        4.989898000      0.212776000     -0.279300000
8        5.465404000     -0.255868000     -1.326046000
8        5.359603000      1.166111000      0.428361000
6        3.677995000     -0.494573000      0.240850000
6        2.378966000      0.309871000     -0.061942000
6        0.996908000     -0.416423000      0.037366000
6       -0.360875000      0.362783000      0.025894000
6       -1.821221000     -0.243269000     -0.012516000
6       -3.198645000      0.498754000     -0.013022000
6       -4.569779000     -0.214722000     -0.044465000
9        3.534380000     -1.742303000     -0.309015000
9        3.740831000     -0.689004000      1.597847000
9        2.350089000      1.375660000      0.789860000
9        2.485610000      0.802423000     -1.331875000
9        0.946150000     -1.292724000     -1.019841000
9        1.016390000     -1.144521000      1.202272000
9       -0.341547000      1.156880000      1.160848000
9       -0.293688000      1.178160000     -1.100641000
9       -1.879339000     -1.067734000      1.113884000
9       -1.851129000     -1.027261000     -1.161021000
9       -3.202673000      1.320008000     -1.120904000
9       -3.229351000      1.279504000      1.121763000
9       -4.715486000     -1.012585000      1.026044000
9       -5.638979000      0.637646000     -0.039177000
9       -4.688108000     -0.966034000     -1.151680000
*
