!r2scanh def2-TZVP opt d3 TightSCF SlowConv defgrid2
 
%pal
nprocs 20
end
 
%scf
MaxIter 1500
end
 
%maxcore 8000
 
!CPCM
%cpcm smd true
SMDsolvent "ACETONITRILE"
end
 
* xyz 0 2
6        4.632147000      0.128043000     -0.490685000
8        5.028526000     -0.786388000     -1.353611000
8        5.055664000      1.238209000     -0.359985000
6        3.469630000     -0.392824000      0.385001000
6        2.106226000      0.081531000     -0.189422000
6        0.874741000     -0.646800000      0.424835000
6       -0.457325000      0.128207000      0.205265000
6       -1.740313000     -0.738755000      0.373195000
6       -2.979686000      0.088170000      0.476807000
6       -4.018403000      0.236286000     -0.588249000
9        3.465102000     -1.736094000      0.450688000
9        3.617517000      0.099985000      1.623110000
9        1.995441000      1.401501000      0.026771000
9        2.113955000     -0.139174000     -1.515882000
9        0.774153000     -1.861148000     -0.136078000
9        1.067179000     -0.795484000      1.744045000
9       -0.518152000      1.131398000      1.095503000
9       -0.473987000      0.646609000     -1.033751000
9       -1.595384000     -1.478622000      1.494075000
9       -1.846058000     -1.560413000     -0.687578000
9       -3.281261000      0.552886000      1.667097000
9       -4.817771000     -0.838739000     -0.675349000
9       -4.789686000      1.288451000     -0.324714000
9       -3.451367000      0.405356000     -1.784356000
1        5.742435000     -0.412636000     -1.903736000
*
