!r2scanh def2-TZVP opt d3 TightSCF SlowConv defgrid2
 
%pal
nprocs 20
end
 
%scf
MaxIter 1500
end
 
%maxcore 8000
 
!CPCM
%cpcm smd true
SMDsolvent "ACETONITRILE"
end
 
* xyz 0 2
6        4.464222000      0.330200000     -0.178044000
8        5.243750000     -0.507438000     -0.836072000
8        4.586103000      1.514997000     -0.087945000
6        3.295060000     -0.430361000      0.491075000
6        2.184446000     -0.682419000     -0.470643000
6        0.810597000     -1.141072000     -0.113085000
6       -0.252260000     -0.002818000     -0.169361000
6       -1.725824000     -0.503069000     -0.125094000
6       -2.731217000      0.610588000      0.287152000
6       -4.205928000      0.288519000     -0.079589000
9        3.754079000     -1.600077000      1.017017000
9        2.843441000      0.305183000      1.531066000
9        2.430203000     -0.508432000     -1.753822000
9        0.415522000     -2.108286000     -0.972164000
9        0.834878000     -1.641815000      1.135106000
9       -0.031517000      0.820257000      0.868024000
9       -0.072089000      0.680433000     -1.310673000
9       -1.828305000     -1.509246000      0.755771000
9       -2.059142000     -0.959391000     -1.342527000
9       -2.401967000      1.760799000     -0.320741000
9       -2.666093000      0.782406000      1.613270000
9       -4.525095000     -0.939477000      0.314714000
9       -4.999164000      1.157125000      0.535894000
9       -4.399995000      0.389413000     -1.387129000
1        5.965125000     -0.004106000     -1.257610000
*
