!r2scanh def2-TZVP freq d3 TightSCF SlowConv defgrid2
 
%pal
nprocs 20
end
 
%scf
MaxIter 1500
end
 
%maxcore 8000
 
!CPCM
%cpcm smd true
SMDsolvent "ACETONITRILE"
end
 
* xyz -1 1
6        7.487515000     27.424265000      3.046320000
6        6.615141000     26.227614000      2.576456000
6        7.443738000     24.986050000      2.137955000
6        6.596555000     23.677436000      2.091862000
6        7.246185000     22.567357000      1.211771000
6        6.687017000     21.145636000      1.507595000
6        6.945199000     20.109349000      0.387660000
6        6.777299000     18.643770000      0.916494000
9        8.460570000     27.658571000      2.171905000
9        8.020550000     27.183036000      4.235624000
9        6.721365000     28.504880000      3.134823000
9        5.801745000     25.891103000      3.589226000
9        5.876199000     26.641463000      1.539703000
9        7.951594000     25.230075000      0.920215000
9        8.455583000     24.811928000      3.001561000
9        6.457589000     23.222625000      3.345994000
9        5.382570000     23.963035000      1.596226000
9        7.023357000     22.871991000     -0.076522000
9        8.571706000     22.565669000      1.434686000
9        7.264298000     20.703173000      2.641935000
9        5.361154000     21.240222000      1.716163000
9        6.081518000     20.358004000     -0.624166000
9        8.196120000     20.323987000     -0.094523000
8        7.828166000     18.047518000      1.184419000
8        5.598567000     18.274041000      1.017725000
8        3.145575000     19.300196000      0.230077000
1        2.663317000     18.472466000      0.149413000
1        4.049427000     19.025629000      0.477334000
1        9.402096000     18.823793000      1.556137000
8       10.265695000     19.192703000      1.827489000
1       10.291564000     20.060077000      1.414219000
*
