!r2scanh def2-TZVP freq d3 TightSCF SlowConv defgrid2
 
%pal
nprocs 20
end
 
%scf
MaxIter 1500
end
 
%maxcore 8000
 
!CPCM
%cpcm smd true
SMDsolvent "ACETONITRILE"
end
 
* xyz -2 2
6        6.834039000     28.252806000      2.605929000
6        6.284703000     26.826906000      2.781828000
6        6.903577000     25.584231000      2.085237000
6        6.424810000     24.094110000      2.170117000
6        7.047459000     22.850847000      1.468850000
6        6.539579000     21.401143000      1.704337000
6        7.037506000     20.256780000      0.785910000
6        6.708600000     18.833502000      1.333579000
9        6.777336000     28.627718000      1.325541000
9        8.103880000     28.324849000      3.012994000
9        6.144742000     29.182153000      3.314350000
9        6.330841000     26.593546000      4.129667000
9        4.977148000     26.899437000      2.386169000
9        6.859173000     25.890217000      0.734796000
9        8.217641000     25.566576000      2.509612000
9        6.470597000     23.792320000      3.522107000
9        5.110069000     24.126743000      1.754863000
9        6.941248000     23.081425000      0.122129000
9        8.373611000     22.849304000      1.808740000
9        6.866265000     21.065921000      2.982588000
9        5.183146000     21.420588000      1.614008000
9        6.475206000     20.439428000     -0.443431000
9        8.381508000     20.416684000      0.620663000
8        7.635718000     18.245142000      1.897660000
8        5.523474000     18.475191000      1.158333000
8        3.288576000     19.441145000     -0.070535000
1        3.079091000     18.675914000     -0.612863000
1        4.139209000     19.202692000      0.357440000
*
