!B3LYP def2-TZVP freq d3 TightSCF SlowConv defgrid2
 
%pal
nprocs 20
end
 
%scf
MaxIter 1500
end
 
%maxcore 8000
 
!CPCM
%cpcm smd true
SMDsolvent "ACETONITRILE"
end
 
* xyz -1 2
6        3.629983000      0.031752000     -1.195225000
8        3.863902000     -0.940697000     -1.921124000
8        3.456448000      1.236143000     -1.443608000
6        3.535847000     -0.277889000      0.364914000
6        2.262748000      0.167014000      0.999997000
6        0.948265000     -0.523361000      0.912678000
6       -0.233673000      0.399199000      0.450761000
6       -1.517775000     -0.386084000     -0.001730000
6       -2.819378000      0.480988000      0.045281000
6       -4.037156000     -0.134552000     -0.717477000
9        3.717344000     -1.611634000      0.630475000
9        4.571336000      0.383722000      0.991652000
9        2.220813000      1.405602000      1.487812000
9        1.031664000     -1.568656000      0.052443000
9        0.588842000     -1.031041000      2.139099000
9       -0.554965000      1.229459000      1.465671000
9        0.180692000      1.145216000     -0.592767000
9       -1.706470000     -1.458568000      0.792306000
9       -1.327112000     -0.818372000     -1.265240000
9       -2.572983000      1.692319000     -0.494048000
9       -3.188250000      0.639918000      1.330632000
9       -4.253705000     -1.392372000     -0.326617000
9       -5.123139000      0.592618000     -0.442020000
9       -3.836024000     -0.116875000     -2.034553000
*
