25
Coordinates from ORCA-job rf_mecn_opt_B3L_D_A E -1953.234513804677
  C           4.98989794461159      0.21277603402823     -0.27929955746067
  O           5.46540391273080     -0.25586760629056     -1.32604574930507
  O           5.35960343184615      1.16611053690351      0.42836108552083
  C           3.67799527594518     -0.49457303539119      0.24084996996515
  C           2.37896558841311      0.30987102866217     -0.06194201171926
  C           0.99690786871153     -0.41642283039038      0.03736612278762
  C          -0.36087504756769      0.36278317914828      0.02589383785126
  C          -1.82122066810284     -0.24326863940427     -0.01251631307530
  C          -3.19864470817537      0.49875447674337     -0.01302242830604
  C          -4.56977943663504     -0.21472202155103     -0.04446495802179
  F           3.53438034447231     -1.74230344529361     -0.30901546722441
  F           3.74083114961645     -0.68900406925358      1.59784684152400
  F           2.35008940014754      1.37565955891645      0.78985968476114
  F           2.48561020367521      0.80242316998235     -1.33187459716374
  F           0.94614985418930     -1.29272404975097     -1.01984139323009
  F           1.01639034628851     -1.14452103944234      1.20227226426273
  F          -0.34154735997869      1.15687995428488      1.16084752561992
  F          -0.29368754009093      1.17816018554655     -1.10064104571697
  F          -1.87933879924129     -1.06773375720240      1.11388420775567
  F          -1.85112855026734     -1.02726080577854     -1.16102140322681
  F          -3.20267321926656      1.32000784640326     -1.12090398491979
  F          -3.22935082478394      1.27950353395277      1.12176316778618
  F          -4.71548573048639     -1.01258527177590      1.02604399281362
  F          -5.63897853110740      0.63764628521335     -0.03917738122444
  F          -4.68810810494420     -0.96603381826040     -1.15167961005375
