27
Coordinates from ORCA-job rf_mecn_1H2O_opt_B3L_con_002 E -1929.732085201511
  C           7.92437212893186     27.24187517678270      2.90568128012599
  C           6.61698188110466     26.67067792831463      2.26634242571123
  C           6.68344965469021     25.14930960464533      1.90924998892028
  C           5.29677628739126     24.47252876686168      1.62593934793982
  C           5.40327140538090     23.11804933195420      0.98893398742344
  C           5.57656065305739     21.78648311662438      1.65260512643451
  C           6.76996876918722     20.94286359684505      1.11429878307687
  C           7.11196852596589     19.70121470642345      2.02972430394155
  F           8.98955001663940     26.92697814546390      2.16526067396141
  F           8.09759368462740     26.76945898352331      4.13981402788211
  F           7.82521396359260     28.57183916191686      2.97049509782433
  F           5.61170296528561     26.89334648704680      3.13664594158588
  F           6.37705030791110     27.36885853617923      1.13957443693875
  F           7.44587810358543     25.01652380200347      0.80215143523581
  F           7.27441043700302     24.48154940545045      2.92156689179426
  F           4.61964557553868     24.38804323923713      2.79369691249586
  F           4.60874492894380     25.28962819708065      0.78585602333721
  F           5.45880733895753     23.12148046364056     -0.33331530286157
  F           5.76041697968773     21.97618519938902      2.98502163368201
  F           4.43317306220146     21.05006668748020      1.49961933108215
  F           6.46318095783761     20.54595449803337     -0.15692547448707
  F           7.83562998930979     21.78980349084944      1.00772289728483
  O           8.06036884361629     19.86318806223396      2.80092534816035
  O           6.36087713099472     18.71900062132767      1.85717856098756
  O           4.40002001246445     18.15614520797205     -0.00000193175278
  H           4.22168524705596     18.97574527133042     -0.47557241305192
  H           5.09560636967517     18.40179127576469      0.64949273426377
