!B3LYP def2-TZVP opt d3 TightSCF SlowConv defgrid2
 
%pal
nprocs 20
end
 
%scf
MaxIter 1500
end
 
%maxcore 8000
 
!CPCM
%cpcm smd true
SMDsolvent "ACETONITRILE"
end
 
* xyz -1 2
6        6.857280945     27.901753127      3.100719684
6        6.154044945     26.704598127      2.411135684
6        7.086539945     25.482838127      2.185613684
6        6.299616945     24.171731127      1.900070684
6        7.185881945     23.070259127      1.248991684
6        6.565390945     21.647303127      1.360366684
6        7.185681945     20.616666127      0.394672684
6        6.843394945     19.121603127      0.784430684
9        8.006806945     28.182557127      2.503585684
9        7.082780945     27.647576127      4.378925684
9        6.067588945     28.966668127      3.018348684
9        5.116418945     26.361022127      3.182510684
9        5.702795945     27.135986127      1.230360684
9        7.887905945     25.777720127      1.156931684
9        7.829891945     25.318192127      3.287321684
9        5.806494945     23.745652127      3.066652684
9        5.287431945     24.474179127      1.076603684
9        7.350609945     23.413929127     -0.034316316
9        6.756126945     21.255165127      2.631170684
9        5.250981945     21.784657127      1.133608684
9        6.706596945     20.903759127     -0.845345316
9        8.519170945     20.869305127      0.364163684
8        7.813741945     18.363469127      0.789215684
8        5.634555945     18.967368127      0.997888684
8        2.818390092     18.736599843      1.412612662
1        2.716934106     17.791620290      1.243555674
1        3.748070901     18.906228277      1.215686974
*
