24
Coordinates from ORCA-job rf_mecn_opt_r2s_C5_D_B E -1853.116887336885
  C           4.24607935690694      0.32197207614944     -1.08606499302556
  O           4.73090168716776     -0.54093776337680     -1.82436643826642
  O           4.28290258442712      1.55991143635081     -1.12274380790054
  C           3.41687808866398     -0.22406264149230      0.13453087055564
  C           1.92144941883870      0.15121110418226      0.04092327806119
  C           0.94535530060328     -0.69864971387712      0.90189004901019
  C          -0.42501794218582     -0.10292891379191      0.99237704657150
  C          -1.63130028434829     -0.59985602270486      0.27200481435934
  C          -2.76109595167333      0.46315539652531      0.20461712443642
  C          -3.90661399779525      0.13339839214142     -0.78984171829476
  F           3.49227404773981     -1.57632283262720      0.24707585987025
  F           3.90027951583152      0.28489102808109      1.30208087955266
  F           1.75012139157389      1.43498456429725      0.41494615228072
  F           1.51859115975008      0.02875799474575     -1.24358814190097
  F           0.84529415650982     -1.93566628882505      0.37523215562524
  F           1.46275525227932     -0.79453074345541      2.14846346853920
  F          -0.60401185952813      0.81151820683662      1.92419291183372
  F          -2.14515102491966     -1.70757102818343      0.86995328155267
  F          -1.29373210507907     -0.95312317656263     -0.98679730213149
  F          -2.23362719193350      1.63959736912316     -0.17235053638589
  F          -3.30522362457467      0.59715215310585      1.42304432271791
  F          -4.39465415632390     -1.08114807913342     -0.56900030148598
  F          -4.87996262528420      1.02263723519427     -0.61828934316919
  F          -3.48200939664642      0.20965304729691     -2.04383603240585
