!B3LYP def2-TZVP freq d3 TightSCF SlowConv defgrid2
 
%pal
nprocs 20
end
 
%scf
MaxIter 1500
end
 
%maxcore 8000
 
!CPCM
%cpcm smd true
SMDsolvent "ACETONITRILE"
end
 
* xyz -1 2
6        6.845931000     27.072283000      1.721327000
6        6.193743000     25.692174000      2.059706000
6        7.224981000     24.543488000      2.315502000
6        6.618994000     23.295639000      3.057453000
6        7.460810000     22.067522000      2.926121000
6        7.077178000     20.725510000      2.369194000
6        7.165041000     20.605719000      0.820822000
6        6.777912000     19.180627000      0.270155000
9        7.782661000     26.933590000      0.779819000
9        7.397874000     27.614660000      2.806708000
9        5.900530000     27.897835000      1.267684000
9        5.420930000     25.866137000      3.150570000
9        5.408859000     25.343182000      1.023029000
9        7.706325000     24.141661000      1.120439000
9        8.251804000     25.022477000      3.048167000
9        6.496154000     23.636127000      4.374089000
9        5.379749000     23.064533000      2.571757000
9        8.747478000     22.239542000      3.190439000
9        7.916296000     19.798850000      2.904823000
9        5.810217000     20.419297000      2.749902000
9        6.353292000     21.570762000      0.299829000
9        8.442071000     20.941519000      0.474374000
8        7.721085000     18.379522000      0.172522000
8        5.573123000     19.027370000      0.012138000
8        3.368498000     20.664541000      0.439614000
1        3.696545000     21.476740000      0.842866000
1        4.173300000     20.123324000      0.294144000
1        9.422503000     18.506935000      0.739952000
8       10.353748000     18.506222000      1.047447000
1       10.461780000     19.360350000      1.482094000
*
